100438
  -OEChem-04042513062D

 38 38  0     0  0  0  0  0  0999 V2000
    6.1350   -2.8100    0.0000 Br  0  0  0  0  0  0  0  0  0  0  0  0
    5.1350   -3.8100    0.0000 Br  0  0  0  0  0  0  0  0  0  0  0  0
    4.1350   -2.8100    0.0000 Br  0  0  0  0  0  0  0  0  0  0  0  0
    2.5369    1.6900    0.0000 O   0  0  0  0  0  0  0  0  0  0  0  0
    3.4030    3.1900    0.0000 O   0  0  0  0  0  0  0  0  0  0  0  0
    9.4651    1.6900    0.0000 O   0  0  0  0  0  0  0  0  0  0  0  0
    8.5991    3.1900    0.0000 O   0  0  0  0  0  0  0  0  0  0  0  0
    4.2690    1.6900    0.0000 N   0  0  0  0  0  0  0  0  0  0  0  0
    7.7331    1.6900    0.0000 N   0  0  0  0  0  0  0  0  0  0  0  0
    6.8671    0.1900    0.0000 N   0  0  0  0  0  0  0  0  0  0  0  0
    5.1350    0.1900    0.0000 N   0  0  0  0  0  0  0  0  0  0  0  0
    6.0010    1.6900    0.0000 N   0  0  0  0  0  0  0  0  0  0  0  0
    6.0010   -1.3100    0.0000 C   0  0  0  0  0  0  0  0  0  0  0  0
    5.1350   -1.8100    0.0000 C   0  0  0  0  0  0  0  0  0  0  0  0
    6.0010   -0.3100    0.0000 C   0  0  0  0  0  0  0  0  0  0  0  0
    5.1350    1.1900    0.0000 C   0  0  0  0  0  0  0  0  0  0  0  0
    6.8671    1.1900    0.0000 C   0  0  0  0  0  0  0  0  0  0  0  0
    5.1350   -2.8100    0.0000 C   0  0  0  0  0  0  0  0  0  0  0  0
    3.4030    1.1900    0.0000 C   0  0  0  0  0  0  0  0  0  0  0  0
    4.2690    2.6900    0.0000 C   0  0  0  0  0  0  0  0  0  0  0  0
    8.5991    1.1900    0.0000 C   0  0  0  0  0  0  0  0  0  0  0  0
    7.7331    2.6900    0.0000 C   0  0  0  0  0  0  0  0  0  0  0  0
    6.2131   -1.8926    0.0000 H   0  0  0  0  0  0  0  0  0  0  0  0
    6.6116   -1.2023    0.0000 H   0  0  0  0  0  0  0  0  0  0  0  0
    4.9230   -1.2274    0.0000 H   0  0  0  0  0  0  0  0  0  0  0  0
    4.5244   -1.9177    0.0000 H   0  0  0  0  0  0  0  0  0  0  0  0
    3.0044    0.7151    0.0000 H   0  0  0  0  0  0  0  0  0  0  0  0
    3.8015    0.7151    0.0000 H   0  0  0  0  0  0  0  0  0  0  0  0
    4.8796    2.5823    0.0000 H   0  0  0  0  0  0  0  0  0  0  0  0
    4.4810    3.2726    0.0000 H   0  0  0  0  0  0  0  0  0  0  0  0
    8.2006    0.7151    0.0000 H   0  0  0  0  0  0  0  0  0  0  0  0
    8.9976    0.7151    0.0000 H   0  0  0  0  0  0  0  0  0  0  0  0
    7.5210    3.2726    0.0000 H   0  0  0  0  0  0  0  0  0  0  0  0
    7.1225    2.5823    0.0000 H   0  0  0  0  0  0  0  0  0  0  0  0
    2.0000    1.3800    0.0000 H   0  0  0  0  0  0  0  0  0  0  0  0
    3.4030    3.8100    0.0000 H   0  0  0  0  0  0  0  0  0  0  0  0
   10.0021    1.3800    0.0000 H   0  0  0  0  0  0  0  0  0  0  0  0
    8.5991    3.8100    0.0000 H   0  0  0  0  0  0  0  0  0  0  0  0
  1 18  1  0  0  0  0
  2 18  1  0  0  0  0
  3 18  1  0  0  0  0
  4 19  1  0  0  0  0
  4 35  1  0  0  0  0
  5 20  1  0  0  0  0
  5 36  1  0  0  0  0
  6 21  1  0  0  0  0
  6 37  1  0  0  0  0
  7 22  1  0  0  0  0
  7 38  1  0  0  0  0
  8 16  1  0  0  0  0
  8 19  1  0  0  0  0
  8 20  1  0  0  0  0
  9 17  1  0  0  0  0
  9 21  1  0  0  0  0
  9 22  1  0  0  0  0
 10 15  2  0  0  0  0
 10 17  1  0  0  0  0
 11 15  1  0  0  0  0
 11 16  2  0  0  0  0
 12 16  1  0  0  0  0
 12 17  2  0  0  0  0
 13 14  1  0  0  0  0
 13 15  1  0  0  0  0
 13 23  1  0  0  0  0
 13 24  1  0  0  0  0
 14 18  1  0  0  0  0
 14 25  1  0  0  0  0
 14 26  1  0  0  0  0
 19 27  1  0  0  0  0
 19 28  1  0  0  0  0
 20 29  1  0  0  0  0
 20 30  1  0  0  0  0
 21 31  1  0  0  0  0
 21 32  1  0  0  0  0
 22 33  1  0  0  0  0
 22 34  1  0  0  0  0
M  END
> <PUBCHEM_COMPOUND_CID>
100438

> <PUBCHEM_COMPOUND_CANONICALIZED>
1

> <PUBCHEM_CACTVS_COMPLEXITY>
297

> <PUBCHEM_CACTVS_HBOND_ACCEPTOR>
9

> <PUBCHEM_CACTVS_HBOND_DONOR>
4

> <PUBCHEM_CACTVS_ROTATABLE_BOND>
8

> <PUBCHEM_CACTVS_SUBSKEYS>
AAADceBzuAAAGAAAAAAAAAAAAAAAAAAAAAAsAAAAAAAAAAABgAAAHgBACAABCACBAwYBEAcIEgAgAAIgJAAAgAkAAKABAAA4ACCAGAAAiAAEAAAIAAIAAAAAAAAAAAAAAAAAAAAAAAAAAAAAAAAAAAAAAA==

> <PUBCHEM_IUPAC_OPENEYE_NAME>
[[4-[bis(hydroxymethyl)amino]-6-(3,3,3-tribromopropyl)-1,3,5-triazin-2-yl]-(hydroxymethyl)amino]methanol

> <PUBCHEM_IUPAC_CAS_NAME>
[[4-[bis(hydroxymethyl)amino]-6-(3,3,3-tribromopropyl)-1,3,5-triazin-2-yl]-(hydroxymethyl)amino]methanol

> <PUBCHEM_IUPAC_NAME_MARKUP>
[[4-[bis(hydroxymethyl)amino]-6-(3,3,3-tribromopropyl)-1,3,5-triazin-2-yl]-(hydroxymethyl)amino]methanol

> <PUBCHEM_IUPAC_NAME>
[[4-[bis(hydroxymethyl)amino]-6-(3,3,3-tribromopropyl)-1,3,5-triazin-2-yl]-(hydroxymethyl)amino]methanol

> <PUBCHEM_IUPAC_SYSTEMATIC_NAME>
[[4-[bis(hydroxymethyl)amino]-6-[3,3,3-tris(bromanyl)propyl]-1,3,5-triazin-2-yl]-(hydroxymethyl)amino]methanol

> <PUBCHEM_IUPAC_TRADITIONAL_NAME>
[[4-(dimethylolamino)-6-(3,3,3-tribromopropyl)-s-triazin-2-yl]-methylol-amino]methanol

> <PUBCHEM_IUPAC_INCHI>
InChI=1S/C10H16Br3N5O4/c11-10(12,13)2-1-7-14-8(17(3-19)4-20)16-9(15-7)18(5-21)6-22/h19-22H,1-6H2

> <PUBCHEM_IUPAC_INCHIKEY>
WRYGOBYUNBNKLX-UHFFFAOYSA-N

> <PUBCHEM_XLOGP3_AA>
1.5

> <PUBCHEM_EXACT_MASS>
508.87319

> <PUBCHEM_MOLECULAR_FORMULA>
C10H16Br3N5O4

> <PUBCHEM_MOLECULAR_WEIGHT>
509.98

> <PUBCHEM_SMILES>
C(CC(Br)(Br)Br)C1=NC(=NC(=N1)N(CO)CO)N(CO)CO

> <PUBCHEM_OPENEYE_CAN_SMILES>
C(CC(Br)(Br)Br)C1=NC(=NC(=N1)N(CO)CO)N(CO)CO

> <PUBCHEM_OPENEYE_ISO_SMILES>
C(CC(Br)(Br)Br)C1=NC(=NC(=N1)N(CO)CO)N(CO)CO

> <PUBCHEM_CACTVS_TPSA>
126

> <PUBCHEM_MONOISOTOPIC_WEIGHT>
506.87524

> <PUBCHEM_TOTAL_CHARGE>
0

> <PUBCHEM_HEAVY_ATOM_COUNT>
22

> <PUBCHEM_ATOM_DEF_STEREO_COUNT>
0

> <PUBCHEM_ATOM_UDEF_STEREO_COUNT>
0

> <PUBCHEM_BOND_DEF_STEREO_COUNT>
0

> <PUBCHEM_BOND_UDEF_STEREO_COUNT>
0

> <PUBCHEM_ISOTOPIC_ATOM_COUNT>
0

> <PUBCHEM_COMPONENT_COUNT>
1

> <PUBCHEM_CACTVS_TAUTO_COUNT>
-1

> <PUBCHEM_COORDINATE_TYPE>
1
5
255

> <PUBCHEM_BONDANNOTATIONS>
10  15  8
10  17  8
11  15  8
11  16  8
12  16  8
12  17  8

$$$$
