10219395
  -OEChem-04042512372D

 13 12  0     1  0  0  0  0  0999 V2000
    6.0010   -0.2500    0.0000 O   0  0  0  0  0  0  0  0  0  0  0  0
    3.4030    0.2500    0.0000 O   0  0  0  0  0  0  0  0  0  0  0  0
    4.2690   -1.2500    0.0000 O   0  0  0  0  0  0  0  0  0  0  0  0
    2.5369   -0.2500    0.0000 O   0  0  0  0  0  0  0  0  0  0  0  0
    5.1350    0.2500    0.0000 C   0  0  3  0  0  0  0  0  0  0  0  0
    5.1350    1.2500    0.0000 C   0  0  0  0  0  0  0  0  0  0  0  0
    4.2690   -0.2500    0.0000 C   0  0  0  0  0  0  0  0  0  0  0  0
    5.1350   -0.3700    0.0000 H   0  0  0  0  0  0  0  0  0  0  0  0
    5.7550    1.2500    0.0000 H   0  0  0  0  0  0  0  0  0  0  0  0
    5.1350    1.8700    0.0000 H   0  0  0  0  0  0  0  0  0  0  0  0
    4.5150    1.2500    0.0000 H   0  0  0  0  0  0  0  0  0  0  0  0
    6.5380    0.0600    0.0000 H   0  0  0  0  0  0  0  0  0  0  0  0
    2.0000    0.0600    0.0000 H   0  0  0  0  0  0  0  0  0  0  0  0
  1  5  1  0  0  0  0
  1 12  1  0  0  0  0
  2  4  1  0  0  0  0
  2  7  1  0  0  0  0
  3  7  2  0  0  0  0
  4 13  1  0  0  0  0
  5  6  1  0  0  0  0
  5  7  1  0  0  0  0
  5  8  1  0  0  0  0
  6  9  1  0  0  0  0
  6 10  1  0  0  0  0
  6 11  1  0  0  0  0
M  END
> <PUBCHEM_COMPOUND_CID>
10219395

> <PUBCHEM_COMPOUND_CANONICALIZED>
1

> <PUBCHEM_CACTVS_COMPLEXITY>
69.3

> <PUBCHEM_CACTVS_HBOND_ACCEPTOR>
4

> <PUBCHEM_CACTVS_HBOND_DONOR>
2

> <PUBCHEM_CACTVS_ROTATABLE_BOND>
2

> <PUBCHEM_CACTVS_SUBSKEYS>
AAADcYBAOAAAAAAAAAAAAAAAAAAAAAAAAAAAAAAAAAAAAAAAAAAAGgAADAAACBSggAICCAAAAgAIAACQCAIAAAAAAAAAAAFAAAABEAAAAAAAAAAAAAABAAAAAAAAAAAAAAAAAAAAAAAAAAAAAAAAAAAAAA==

> <PUBCHEM_IUPAC_OPENEYE_NAME>
2-hydroxypropaneperoxoic acid

> <PUBCHEM_IUPAC_CAS_NAME>
2-hydroxypropaneperoxoic acid

> <PUBCHEM_IUPAC_NAME_MARKUP>
2-hydroxypropaneperoxoic acid

> <PUBCHEM_IUPAC_NAME>
2-hydroxypropaneperoxoic acid

> <PUBCHEM_IUPAC_SYSTEMATIC_NAME>
2-oxidanylpropaneperoxoic acid

> <PUBCHEM_IUPAC_TRADITIONAL_NAME>
2-hydroxyperoxypropionic acid

> <PUBCHEM_IUPAC_INCHI>
InChI=1S/C3H6O4/c1-2(4)3(5)7-6/h2,4,6H,1H3

> <PUBCHEM_IUPAC_INCHIKEY>
LLWVBKQQPPRNEX-UHFFFAOYSA-N

> <PUBCHEM_XLOGP3_AA>
-0.6

> <PUBCHEM_EXACT_MASS>
106.02660867

> <PUBCHEM_MOLECULAR_FORMULA>
C3H6O4

> <PUBCHEM_MOLECULAR_WEIGHT>
106.08

> <PUBCHEM_SMILES>
CC(C(=O)OO)O

> <PUBCHEM_OPENEYE_CAN_SMILES>
CC(C(=O)OO)O

> <PUBCHEM_OPENEYE_ISO_SMILES>
CC(C(=O)OO)O

> <PUBCHEM_CACTVS_TPSA>
66.8

> <PUBCHEM_MONOISOTOPIC_WEIGHT>
106.02660867

> <PUBCHEM_TOTAL_CHARGE>
0

> <PUBCHEM_HEAVY_ATOM_COUNT>
7

> <PUBCHEM_ATOM_DEF_STEREO_COUNT>
0

> <PUBCHEM_ATOM_UDEF_STEREO_COUNT>
1

> <PUBCHEM_BOND_DEF_STEREO_COUNT>
0

> <PUBCHEM_BOND_UDEF_STEREO_COUNT>
0

> <PUBCHEM_ISOTOPIC_ATOM_COUNT>
0

> <PUBCHEM_COMPONENT_COUNT>
1

> <PUBCHEM_CACTVS_TAUTO_COUNT>
-1

> <PUBCHEM_COORDINATE_TYPE>
1
5
255

> <PUBCHEM_BONDANNOTATIONS>
5  1  3

$$$$
