1030
  -OEChem-04042505342D

 13 12  0     1  0  0  0  0  0999 V2000
    2.5369    0.7500    0.0000 O   0  0  0  0  0  0  0  0  0  0  0  0
    5.1350    0.2500    0.0000 O   0  0  0  0  0  0  0  0  0  0  0  0
    3.4030    0.2500    0.0000 C   0  0  3  0  0  0  0  0  0  0  0  0
    4.2690    0.7500    0.0000 C   0  0  0  0  0  0  0  0  0  0  0  0
    3.4030   -0.7500    0.0000 C   0  0  0  0  0  0  0  0  0  0  0  0
    3.4030    0.8700    0.0000 H   0  0  0  0  0  0  0  0  0  0  0  0
    4.6675    1.2250    0.0000 H   0  0  0  0  0  0  0  0  0  0  0  0
    3.8705    1.2250    0.0000 H   0  0  0  0  0  0  0  0  0  0  0  0
    2.7830   -0.7500    0.0000 H   0  0  0  0  0  0  0  0  0  0  0  0
    3.4030   -1.3700    0.0000 H   0  0  0  0  0  0  0  0  0  0  0  0
    4.0230   -0.7500    0.0000 H   0  0  0  0  0  0  0  0  0  0  0  0
    2.0000    0.4400    0.0000 H   0  0  0  0  0  0  0  0  0  0  0  0
    5.6720    0.5600    0.0000 H   0  0  0  0  0  0  0  0  0  0  0  0
  1  3  1  0  0  0  0
  1 12  1  0  0  0  0
  2  4  1  0  0  0  0
  2 13  1  0  0  0  0
  3  4  1  0  0  0  0
  3  5  1  0  0  0  0
  3  6  1  0  0  0  0
  4  7  1  0  0  0  0
  4  8  1  0  0  0  0
  5  9  1  0  0  0  0
  5 10  1  0  0  0  0
  5 11  1  0  0  0  0
M  END
> <PUBCHEM_COMPOUND_CID>
1030

> <PUBCHEM_COMPOUND_CANONICALIZED>
1

> <PUBCHEM_CACTVS_COMPLEXITY>
20.9

> <PUBCHEM_CACTVS_HBOND_ACCEPTOR>
2

> <PUBCHEM_CACTVS_HBOND_DONOR>
2

> <PUBCHEM_CACTVS_ROTATABLE_BOND>
1

> <PUBCHEM_CACTVS_SUBSKEYS>
AAADccBAMAAAAAAAAAAAAAAAAAAAAAAAAAAAAAAAAAAAAAAAAAAAGgAACAAACBSggAICAAAAAgAAAAAAAAAAAAAAAAAAAAAAAAABEAAAAAAAQAAAAAABAAAAAAAAAAAAAAAAAAAAAAAAAAAAAAAAAAAAAA==

> <PUBCHEM_IUPAC_OPENEYE_NAME>
propane-1,2-diol

> <PUBCHEM_IUPAC_CAS_NAME>
propane-1,2-diol

> <PUBCHEM_IUPAC_NAME_MARKUP>
propane-1,2-diol

> <PUBCHEM_IUPAC_NAME>
propane-1,2-diol

> <PUBCHEM_IUPAC_SYSTEMATIC_NAME>
propane-1,2-diol

> <PUBCHEM_IUPAC_TRADITIONAL_NAME>
propane-1,2-diol

> <PUBCHEM_IUPAC_INCHI>
InChI=1S/C3H8O2/c1-3(5)2-4/h3-5H,2H2,1H3

> <PUBCHEM_IUPAC_INCHIKEY>
DNIAPMSPPWPWGF-UHFFFAOYSA-N

> <PUBCHEM_XLOGP3>
-0.9

> <PUBCHEM_EXACT_MASS>
76.052429494

> <PUBCHEM_MOLECULAR_FORMULA>
C3H8O2

> <PUBCHEM_MOLECULAR_WEIGHT>
76.09

> <PUBCHEM_SMILES>
CC(CO)O

> <PUBCHEM_OPENEYE_CAN_SMILES>
CC(CO)O

> <PUBCHEM_OPENEYE_ISO_SMILES>
CC(CO)O

> <PUBCHEM_CACTVS_TPSA>
40.5

> <PUBCHEM_MONOISOTOPIC_WEIGHT>
76.052429494

> <PUBCHEM_TOTAL_CHARGE>
0

> <PUBCHEM_HEAVY_ATOM_COUNT>
5

> <PUBCHEM_ATOM_DEF_STEREO_COUNT>
0

> <PUBCHEM_ATOM_UDEF_STEREO_COUNT>
1

> <PUBCHEM_BOND_DEF_STEREO_COUNT>
0

> <PUBCHEM_BOND_UDEF_STEREO_COUNT>
0

> <PUBCHEM_ISOTOPIC_ATOM_COUNT>
0

> <PUBCHEM_COMPONENT_COUNT>
1

> <PUBCHEM_CACTVS_TAUTO_COUNT>
-1

> <PUBCHEM_COORDINATE_TYPE>
1
5
255

> <PUBCHEM_BONDANNOTATIONS>
3  1  3

$$$$
