10313247
  -OEChem-04042512462D

 27 26  0     0  0  0  0  0  0999 V2000
    3.4030    0.7500    0.0000 O   0  0  0  0  0  0  0  0  0  0  0  0
    4.2690   -0.7500    0.0000 O   0  0  0  0  0  0  0  0  0  0  0  0
    2.5369    0.2500    0.0000 O   0  0  0  0  0  0  0  0  0  0  0  0
    7.7331    0.2500    0.0000 C   0  0  0  0  0  0  0  0  0  0  0  0
    6.8671    0.7500    0.0000 C   0  0  0  0  0  0  0  0  0  0  0  0
    8.5991    0.7500    0.0000 C   0  0  0  0  0  0  0  0  0  0  0  0
    6.0010    0.2500    0.0000 C   0  0  0  0  0  0  0  0  0  0  0  0
    9.4651    0.2500    0.0000 C   0  0  0  0  0  0  0  0  0  0  0  0
    5.1350    0.7500    0.0000 C   0  0  0  0  0  0  0  0  0  0  0  0
   10.3312    0.7500    0.0000 C   0  0  0  0  0  0  0  0  0  0  0  0
    4.2690    0.2500    0.0000 C   0  0  0  0  0  0  0  0  0  0  0  0
    7.3346   -0.2249    0.0000 H   0  0  0  0  0  0  0  0  0  0  0  0
    8.1316   -0.2249    0.0000 H   0  0  0  0  0  0  0  0  0  0  0  0
    7.2656    1.2250    0.0000 H   0  0  0  0  0  0  0  0  0  0  0  0
    6.4685    1.2250    0.0000 H   0  0  0  0  0  0  0  0  0  0  0  0
    8.9976    1.2250    0.0000 H   0  0  0  0  0  0  0  0  0  0  0  0
    8.2006    1.2250    0.0000 H   0  0  0  0  0  0  0  0  0  0  0  0
    5.6025   -0.2249    0.0000 H   0  0  0  0  0  0  0  0  0  0  0  0
    6.3996   -0.2249    0.0000 H   0  0  0  0  0  0  0  0  0  0  0  0
    9.0666   -0.2249    0.0000 H   0  0  0  0  0  0  0  0  0  0  0  0
    9.8637   -0.2249    0.0000 H   0  0  0  0  0  0  0  0  0  0  0  0
    5.5335    1.2250    0.0000 H   0  0  0  0  0  0  0  0  0  0  0  0
    4.7365    1.2250    0.0000 H   0  0  0  0  0  0  0  0  0  0  0  0
   10.6412    0.2131    0.0000 H   0  0  0  0  0  0  0  0  0  0  0  0
   10.8681    1.0600    0.0000 H   0  0  0  0  0  0  0  0  0  0  0  0
   10.0212    1.2869    0.0000 H   0  0  0  0  0  0  0  0  0  0  0  0
    2.0000    0.5600    0.0000 H   0  0  0  0  0  0  0  0  0  0  0  0
  1  3  1  0  0  0  0
  1 11  1  0  0  0  0
  2 11  2  0  0  0  0
  3 27  1  0  0  0  0
  4  5  1  0  0  0  0
  4  6  1  0  0  0  0
  4 12  1  0  0  0  0
  4 13  1  0  0  0  0
  5  7  1  0  0  0  0
  5 14  1  0  0  0  0
  5 15  1  0  0  0  0
  6  8  1  0  0  0  0
  6 16  1  0  0  0  0
  6 17  1  0  0  0  0
  7  9  1  0  0  0  0
  7 18  1  0  0  0  0
  7 19  1  0  0  0  0
  8 10  1  0  0  0  0
  8 20  1  0  0  0  0
  8 21  1  0  0  0  0
  9 11  1  0  0  0  0
  9 22  1  0  0  0  0
  9 23  1  0  0  0  0
 10 24  1  0  0  0  0
 10 25  1  0  0  0  0
 10 26  1  0  0  0  0
M  END
> <PUBCHEM_COMPOUND_CID>
10313247

> <PUBCHEM_COMPOUND_CANONICALIZED>
1

> <PUBCHEM_CACTVS_COMPLEXITY>
102

> <PUBCHEM_CACTVS_HBOND_ACCEPTOR>
3

> <PUBCHEM_CACTVS_HBOND_DONOR>
1

> <PUBCHEM_CACTVS_ROTATABLE_BOND>
7

> <PUBCHEM_CACTVS_SUBSKEYS>
AAADceBwMAAAAAAAAAAAAAAAAAAAAAAAAAAAAAAAAAAAAAAAAAAAGgAADAAACACAgAACCAAAAAAIAACQCAAAAAAAAAAAAAEAAAAAABIAAAAAAAAEAAAAAAGIyKCAAAAAAAAAAAAAAAAAAAAAAAAAAAAAAA==

> <PUBCHEM_IUPAC_OPENEYE_NAME>
octaneperoxoic acid

> <PUBCHEM_IUPAC_CAS_NAME>
octaneperoxoic acid

> <PUBCHEM_IUPAC_NAME_MARKUP>
octaneperoxoic acid

> <PUBCHEM_IUPAC_NAME>
octaneperoxoic acid

> <PUBCHEM_IUPAC_SYSTEMATIC_NAME>
octaneperoxoic acid

> <PUBCHEM_IUPAC_TRADITIONAL_NAME>
peroxycaprylic acid

> <PUBCHEM_IUPAC_INCHI>
InChI=1S/C8H16O3/c1-2-3-4-5-6-7-8(9)11-10/h10H,2-7H2,1H3

> <PUBCHEM_IUPAC_INCHIKEY>
CVXHBROPWMVEQO-UHFFFAOYSA-N

> <PUBCHEM_XLOGP3>
2.9

> <PUBCHEM_EXACT_MASS>
160.109944368

> <PUBCHEM_MOLECULAR_FORMULA>
C8H16O3

> <PUBCHEM_MOLECULAR_WEIGHT>
160.21

> <PUBCHEM_SMILES>
CCCCCCCC(=O)OO

> <PUBCHEM_OPENEYE_CAN_SMILES>
CCCCCCCC(=O)OO

> <PUBCHEM_OPENEYE_ISO_SMILES>
CCCCCCCC(=O)OO

> <PUBCHEM_CACTVS_TPSA>
46.5

> <PUBCHEM_MONOISOTOPIC_WEIGHT>
160.109944368

> <PUBCHEM_TOTAL_CHARGE>
0

> <PUBCHEM_HEAVY_ATOM_COUNT>
11

> <PUBCHEM_ATOM_DEF_STEREO_COUNT>
0

> <PUBCHEM_ATOM_UDEF_STEREO_COUNT>
0

> <PUBCHEM_BOND_DEF_STEREO_COUNT>
0

> <PUBCHEM_BOND_UDEF_STEREO_COUNT>
0

> <PUBCHEM_ISOTOPIC_ATOM_COUNT>
0

> <PUBCHEM_COMPONENT_COUNT>
1

> <PUBCHEM_CACTVS_TAUTO_COUNT>
-1

> <PUBCHEM_COORDINATE_TYPE>
1
5
255

$$$$
