10907737
  -OEChem-04042505452D

 96 97  0     1  0  0  0  0  0999 V2000
    4.5981    2.0000    0.0000 O   0  0  0  0  0  0  0  0  0  0  0  0
    6.3301   -1.0000    0.0000 O   0  0  0  0  0  0  0  0  0  0  0  0
    4.5981    3.7320    0.0000 O   0  0  0  0  0  0  0  0  0  0  0  0
    6.3301    3.0000    0.0000 C   0  0  0  0  0  0  0  0  0  0  0  0
    4.5981   -0.0000    0.0000 C   0  0  3  0  0  0  0  0  0  0  0  0
    8.0622   -0.0000    0.0000 C   0  0  0  0  0  0  0  0  0  0  0  0
    6.3301   -3.0000    0.0000 C   0  0  0  0  0  0  0  0  0  0  0  0
    2.8660   -3.0000    0.0000 C   0  0  0  0  0  0  0  0  0  0  0  0
    6.3301    2.0000    0.0000 C   0  0  0  0  0  0  0  0  0  0  0  0
    5.4641    0.5000    0.0000 C   0  0  0  0  0  0  0  0  0  0  0  0
    7.1962    0.5000    0.0000 C   0  0  0  0  0  0  0  0  0  0  0  0
    4.5981   -1.0000    0.0000 C   0  0  0  0  0  0  0  0  0  0  0  0
    5.4641   -2.5000    0.0000 C   0  0  0  0  0  0  0  0  0  0  0  0
    3.7320   -2.5000    0.0000 C   0  0  0  0  0  0  0  0  0  0  0  0
    5.4641    1.5000    0.0000 C   0  0  0  0  0  0  0  0  0  0  0  0
    5.4641   -1.5000    0.0000 C   0  0  0  0  0  0  0  0  0  0  0  0
    7.1962    1.5000    0.0000 C   0  0  0  0  0  0  0  0  0  0  0  0
    6.3301   -0.0000    0.0000 C   0  0  0  0  0  0  0  0  0  0  0  0
    3.7320   -1.5000    0.0000 C   0  0  0  0  0  0  0  0  0  0  0  0
    4.5981   -3.0000    0.0000 C   0  0  0  0  0  0  0  0  0  0  0  0
    6.3301    4.0000    0.0000 C   0  0  0  0  0  0  0  0  0  0  0  0
    8.9282   -0.5000    0.0000 C   0  0  0  0  0  0  0  0  0  0  0  0
    7.1962   -3.5000    0.0000 C   0  0  0  0  0  0  0  0  0  0  0  0
    2.0000   -3.5000    0.0000 C   0  0  0  0  0  0  0  0  0  0  0  0
    7.3301    3.0000    0.0000 C   0  0  0  0  0  0  0  0  0  0  0  0
    5.4642    3.5001    0.0000 C   0  0  0  0  0  0  0  0  0  0  0  0
    3.7320    0.5000    0.0000 C   0  0  0  0  0  0  0  0  0  0  0  0
    8.5622    0.8660    0.0000 C   0  0  0  0  0  0  0  0  0  0  0  0
    7.5622   -0.8660    0.0000 C   0  0  0  0  0  0  0  0  0  0  0  0
    5.8301   -3.8660    0.0000 C   0  0  0  0  0  0  0  0  0  0  0  0
    6.8301   -2.1340    0.0000 C   0  0  0  0  0  0  0  0  0  0  0  0
    3.3660   -3.8660    0.0000 C   0  0  0  0  0  0  0  0  0  0  0  0
    2.3660   -2.1340    0.0000 C   0  0  0  0  0  0  0  0  0  0  0  0
    7.1962    4.5000    0.0000 C   0  0  0  0  0  0  0  0  0  0  0  0
    9.7942   -0.0000    0.0000 C   0  0  0  0  0  0  0  0  0  0  0  0
    7.1962   -4.5000    0.0000 C   0  0  0  0  0  0  0  0  0  0  0  0
    2.0000   -4.5000    0.0000 C   0  0  0  0  0  0  0  0  0  0  0  0
    4.0981    2.8660    0.0000 C   0  0  0  0  0  0  0  0  0  0  0  0
    3.0981    2.8660    0.0000 C   0  0  0  0  0  0  0  0  0  0  0  0
    2.5981    2.0000    0.0000 C   0  0  0  0  0  0  0  0  0  0  0  0
    4.5981    0.6200    0.0000 H   0  0  0  0  0  0  0  0  0  0  0  0
    7.7331    1.8100    0.0000 H   0  0  0  0  0  0  0  0  0  0  0  0
    6.3301   -0.6200    0.0000 H   0  0  0  0  0  0  0  0  0  0  0  0
    3.1951   -1.1900    0.0000 H   0  0  0  0  0  0  0  0  0  0  0  0
    4.5981   -3.6200    0.0000 H   0  0  0  0  0  0  0  0  0  0  0  0
    6.1181    4.5826    0.0000 H   0  0  0  0  0  0  0  0  0  0  0  0
    5.7196    3.8923    0.0000 H   0  0  0  0  0  0  0  0  0  0  0  0
    8.5297   -0.9749    0.0000 H   0  0  0  0  0  0  0  0  0  0  0  0
    9.3267   -0.9749    0.0000 H   0  0  0  0  0  0  0  0  0  0  0  0
    7.8067   -3.6077    0.0000 H   0  0  0  0  0  0  0  0  0  0  0  0
    7.4082   -2.9174    0.0000 H   0  0  0  0  0  0  0  0  0  0  0  0
    1.7880   -2.9174    0.0000 H   0  0  0  0  0  0  0  0  0  0  0  0
    1.3894   -3.6077    0.0000 H   0  0  0  0  0  0  0  0  0  0  0  0
    7.3301    2.3800    0.0000 H   0  0  0  0  0  0  0  0  0  0  0  0
    7.9501    3.0000    0.0000 H   0  0  0  0  0  0  0  0  0  0  0  0
    7.3301    3.6200    0.0000 H   0  0  0  0  0  0  0  0  0  0  0  0
    5.7742    4.0370    0.0000 H   0  0  0  0  0  0  0  0  0  0  0  0
    4.9272    3.8101    0.0000 H   0  0  0  0  0  0  0  0  0  0  0  0
    5.1541    2.9632    0.0000 H   0  0  0  0  0  0  0  0  0  0  0  0
    4.0420    1.0369    0.0000 H   0  0  0  0  0  0  0  0  0  0  0  0
    3.1951    0.8100    0.0000 H   0  0  0  0  0  0  0  0  0  0  0  0
    3.4220   -0.0369    0.0000 H   0  0  0  0  0  0  0  0  0  0  0  0
    9.0991    0.5560    0.0000 H   0  0  0  0  0  0  0  0  0  0  0  0
    8.8722    1.4030    0.0000 H   0  0  0  0  0  0  0  0  0  0  0  0
    8.0252    1.1760    0.0000 H   0  0  0  0  0  0  0  0  0  0  0  0
    7.0252   -0.5560    0.0000 H   0  0  0  0  0  0  0  0  0  0  0  0
    7.2522   -1.4030    0.0000 H   0  0  0  0  0  0  0  0  0  0  0  0
    8.0991   -1.1760    0.0000 H   0  0  0  0  0  0  0  0  0  0  0  0
    5.2932   -3.5560    0.0000 H   0  0  0  0  0  0  0  0  0  0  0  0
    5.5201   -4.4030    0.0000 H   0  0  0  0  0  0  0  0  0  0  0  0
    6.3671   -4.1760    0.0000 H   0  0  0  0  0  0  0  0  0  0  0  0
    7.3671   -2.4440    0.0000 H   0  0  0  0  0  0  0  0  0  0  0  0
    7.1401   -1.5970    0.0000 H   0  0  0  0  0  0  0  0  0  0  0  0
    6.2932   -1.8240    0.0000 H   0  0  0  0  0  0  0  0  0  0  0  0
    2.8291   -4.1760    0.0000 H   0  0  0  0  0  0  0  0  0  0  0  0
    3.6760   -4.4030    0.0000 H   0  0  0  0  0  0  0  0  0  0  0  0
    3.9030   -3.5560    0.0000 H   0  0  0  0  0  0  0  0  0  0  0  0
    2.9030   -1.8240    0.0000 H   0  0  0  0  0  0  0  0  0  0  0  0
    2.0560   -1.5970    0.0000 H   0  0  0  0  0  0  0  0  0  0  0  0
    1.8291   -2.4440    0.0000 H   0  0  0  0  0  0  0  0  0  0  0  0
    7.5062    3.9631    0.0000 H   0  0  0  0  0  0  0  0  0  0  0  0
    7.7331    4.8100    0.0000 H   0  0  0  0  0  0  0  0  0  0  0  0
    6.8862    5.0369    0.0000 H   0  0  0  0  0  0  0  0  0  0  0  0
   10.1042   -0.5369    0.0000 H   0  0  0  0  0  0  0  0  0  0  0  0
   10.3312    0.3100    0.0000 H   0  0  0  0  0  0  0  0  0  0  0  0
    9.4842    0.5369    0.0000 H   0  0  0  0  0  0  0  0  0  0  0  0
    6.5762   -4.5000    0.0000 H   0  0  0  0  0  0  0  0  0  0  0  0
    7.1962   -5.1200    0.0000 H   0  0  0  0  0  0  0  0  0  0  0  0
    7.8162   -4.5000    0.0000 H   0  0  0  0  0  0  0  0  0  0  0  0
    1.3800   -4.5000    0.0000 H   0  0  0  0  0  0  0  0  0  0  0  0
    2.0000   -5.1200    0.0000 H   0  0  0  0  0  0  0  0  0  0  0  0
    2.6200   -4.5000    0.0000 H   0  0  0  0  0  0  0  0  0  0  0  0
    6.8671   -1.3100    0.0000 H   0  0  0  0  0  0  0  0  0  0  0  0
    2.7881    3.4030    0.0000 H   0  0  0  0  0  0  0  0  0  0  0  0
    1.9781    2.0000    0.0000 H   0  0  0  0  0  0  0  0  0  0  0  0
    2.9081    1.4631    0.0000 H   0  0  0  0  0  0  0  0  0  0  0  0
  1 15  1  0  0  0  0
  1 38  1  0  0  0  0
  2 16  1  0  0  0  0
  2 93  1  0  0  0  0
  3 38  2  0  0  0  0
  4  9  1  0  0  0  0
  4 21  1  0  0  0  0
  4 25  1  0  0  0  0
  4 26  1  0  0  0  0
  5 10  1  0  0  0  0
  5 12  1  0  0  0  0
  5 27  1  0  0  0  0
  5 41  1  0  0  0  0
  6 11  1  0  0  0  0
  6 22  1  0  0  0  0
  6 28  1  0  0  0  0
  6 29  1  0  0  0  0
  7 13  1  0  0  0  0
  7 23  1  0  0  0  0
  7 30  1  0  0  0  0
  7 31  1  0  0  0  0
  8 14  1  0  0  0  0
  8 24  1  0  0  0  0
  8 32  1  0  0  0  0
  8 33  1  0  0  0  0
  9 15  1  0  0  0  0
  9 17  2  0  0  0  0
 10 15  2  0  0  0  0
 10 18  1  0  0  0  0
 11 17  1  0  0  0  0
 11 18  2  0  0  0  0
 12 16  2  0  0  0  0
 12 19  1  0  0  0  0
 13 16  1  0  0  0  0
 13 20  2  0  0  0  0
 14 19  2  0  0  0  0
 14 20  1  0  0  0  0
 17 42  1  0  0  0  0
 18 43  1  0  0  0  0
 19 44  1  0  0  0  0
 20 45  1  0  0  0  0
 21 34  1  0  0  0  0
 21 46  1  0  0  0  0
 21 47  1  0  0  0  0
 22 35  1  0  0  0  0
 22 48  1  0  0  0  0
 22 49  1  0  0  0  0
 23 36  1  0  0  0  0
 23 50  1  0  0  0  0
 23 51  1  0  0  0  0
 24 37  1  0  0  0  0
 24 52  1  0  0  0  0
 24 53  1  0  0  0  0
 25 54  1  0  0  0  0
 25 55  1  0  0  0  0
 25 56  1  0  0  0  0
 26 57  1  0  0  0  0
 26 58  1  0  0  0  0
 26 59  1  0  0  0  0
 27 60  1  0  0  0  0
 27 61  1  0  0  0  0
 27 62  1  0  0  0  0
 28 63  1  0  0  0  0
 28 64  1  0  0  0  0
 28 65  1  0  0  0  0
 29 66  1  0  0  0  0
 29 67  1  0  0  0  0
 29 68  1  0  0  0  0
 30 69  1  0  0  0  0
 30 70  1  0  0  0  0
 30 71  1  0  0  0  0
 31 72  1  0  0  0  0
 31 73  1  0  0  0  0
 31 74  1  0  0  0  0
 32 75  1  0  0  0  0
 32 76  1  0  0  0  0
 32 77  1  0  0  0  0
 33 78  1  0  0  0  0
 33 79  1  0  0  0  0
 33 80  1  0  0  0  0
 34 81  1  0  0  0  0
 34 82  1  0  0  0  0
 34 83  1  0  0  0  0
 35 84  1  0  0  0  0
 35 85  1  0  0  0  0
 35 86  1  0  0  0  0
 36 87  1  0  0  0  0
 36 88  1  0  0  0  0
 36 89  1  0  0  0  0
 37 90  1  0  0  0  0
 37 91  1  0  0  0  0
 37 92  1  0  0  0  0
 38 39  1  0  0  0  0
 39 40  2  0  0  0  0
 39 94  1  0  0  0  0
 40 95  1  0  0  0  0
 40 96  1  0  0  0  0
M  END
> <PUBCHEM_COMPOUND_CID>
10907737

> <PUBCHEM_COMPOUND_CANONICALIZED>
1

> <PUBCHEM_CACTVS_COMPLEXITY>
836

> <PUBCHEM_CACTVS_HBOND_ACCEPTOR>
3

> <PUBCHEM_CACTVS_HBOND_DONOR>
1

> <PUBCHEM_CACTVS_ROTATABLE_BOND>
13

> <PUBCHEM_CACTVS_SUBSKEYS>
AAADcfB8MAAAAAAAAAAAAAAAAAAAAAAAAAAwYAAAAAAAAAABQAAAGgAACAAADwSAmAAyDoAABgCIAiDSCAACCAAgIAAIiAAECMgMJiKGMRqCeiCkwBEIuIeA4PwPoAACAAAIAABAAAQAABAAAAAAAAAAAA==

> <PUBCHEM_IUPAC_OPENEYE_NAME>
[2-[1-[3,5-bis(1,1-dimethylpropyl)-2-hydroxy-phenyl]ethyl]-4,6-bis(1,1-dimethylpropyl)phenyl] prop-2-enoate

> <PUBCHEM_IUPAC_CAS_NAME>
2-propenoic acid [2-[1-[2-hydroxy-3,5-bis(2-methylbutan-2-yl)phenyl]ethyl]-4,6-bis(2-methylbutan-2-yl)phenyl] ester

> <PUBCHEM_IUPAC_NAME_MARKUP>
[2-[1-[2-hydroxy-3,5-bis(2-methylbutan-2-yl)phenyl]ethyl]-4,6-bis(2-methylbutan-2-yl)phenyl] prop-2-enoate

> <PUBCHEM_IUPAC_NAME>
[2-[1-[2-hydroxy-3,5-bis(2-methylbutan-2-yl)phenyl]ethyl]-4,6-bis(2-methylbutan-2-yl)phenyl] prop-2-enoate

> <PUBCHEM_IUPAC_SYSTEMATIC_NAME>
[2-[1-[3,5-bis(2-methylbutan-2-yl)-2-oxidanyl-phenyl]ethyl]-4,6-bis(2-methylbutan-2-yl)phenyl] prop-2-enoate

> <PUBCHEM_IUPAC_TRADITIONAL_NAME>
acrylic acid [2,4-ditert-amyl-6-[1-(3,5-ditert-amyl-2-hydroxy-phenyl)ethyl]phenyl] ester

> <PUBCHEM_IUPAC_INCHI>
InChI=1S/C37H56O3/c1-15-31(38)40-33-28(21-26(35(9,10)17-3)23-30(33)37(13,14)19-5)24(6)27-20-25(34(7,8)16-2)22-29(32(27)39)36(11,12)18-4/h15,20-24,39H,1,16-19H2,2-14H3

> <PUBCHEM_IUPAC_INCHIKEY>
STLLXWLDRUVCHL-UHFFFAOYSA-N

> <PUBCHEM_XLOGP3_AA>
13

> <PUBCHEM_EXACT_MASS>
548.42294564

> <PUBCHEM_MOLECULAR_FORMULA>
C37H56O3

> <PUBCHEM_MOLECULAR_WEIGHT>
548.8

> <PUBCHEM_SMILES>
CCC(C)(C)C1=CC(=C(C(=C1)C(C)(C)CC)O)C(C)C2=C(C(=CC(=C2)C(C)(C)CC)C(C)(C)CC)OC(=O)C=C

> <PUBCHEM_OPENEYE_CAN_SMILES>
CCC(C)(C)C1=CC(=C(C(=C1)C(C)(C)CC)O)C(C)C2=C(C(=CC(=C2)C(C)(C)CC)C(C)(C)CC)OC(=O)C=C

> <PUBCHEM_OPENEYE_ISO_SMILES>
CCC(C)(C)C1=CC(=C(C(=C1)C(C)(C)CC)O)C(C)C2=C(C(=CC(=C2)C(C)(C)CC)C(C)(C)CC)OC(=O)C=C

> <PUBCHEM_CACTVS_TPSA>
46.5

> <PUBCHEM_MONOISOTOPIC_WEIGHT>
548.42294564

> <PUBCHEM_TOTAL_CHARGE>
0

> <PUBCHEM_HEAVY_ATOM_COUNT>
40

> <PUBCHEM_ATOM_DEF_STEREO_COUNT>
0

> <PUBCHEM_ATOM_UDEF_STEREO_COUNT>
1

> <PUBCHEM_BOND_DEF_STEREO_COUNT>
0

> <PUBCHEM_BOND_UDEF_STEREO_COUNT>
0

> <PUBCHEM_ISOTOPIC_ATOM_COUNT>
0

> <PUBCHEM_COMPONENT_COUNT>
1

> <PUBCHEM_CACTVS_TAUTO_COUNT>
-1

> <PUBCHEM_COORDINATE_TYPE>
1
5
255

> <PUBCHEM_BONDANNOTATIONS>
10  15  8
10  18  8
11  17  8
11  18  8
12  16  8
12  19  8
13  16  8
13  20  8
14  19  8
14  20  8
5  27  3
9  15  8
9  17  8

$$$$
