109058
  -OEChem-04042505452D

 63 64  0     0  0  0  0  0  0999 V2000
    4.5981    1.0000    0.0000 O   0  0  0  0  0  0  0  0  0  0  0  0
    8.0622    1.0000    0.0000 O   0  0  0  0  0  0  0  0  0  0  0  0
    6.3301    1.0000    0.0000 O   0  0  0  0  0  0  0  0  0  0  0  0
    2.8660    0.0000    0.0000 C   0  0  0  0  0  0  0  0  0  0  0  0
    9.7942   -0.0000    0.0000 C   0  0  0  0  0  0  0  0  0  0  0  0
    3.7320   -0.5000    0.0000 C   0  0  0  0  0  0  0  0  0  0  0  0
    8.9282   -0.5000    0.0000 C   0  0  0  0  0  0  0  0  0  0  0  0
    6.3301   -0.0000    0.0000 C   0  0  0  0  0  0  0  0  0  0  0  0
    5.4641   -0.5000    0.0000 C   0  0  0  0  0  0  0  0  0  0  0  0
    7.1962   -0.5000    0.0000 C   0  0  0  0  0  0  0  0  0  0  0  0
    4.5981    0.0000    0.0000 C   0  0  0  0  0  0  0  0  0  0  0  0
    8.0622   -0.0000    0.0000 C   0  0  0  0  0  0  0  0  0  0  0  0
    2.0000    0.5000    0.0000 C   0  0  0  0  0  0  0  0  0  0  0  0
    2.3660   -0.8660    0.0000 C   0  0  0  0  0  0  0  0  0  0  0  0
    3.3660    0.8660    0.0000 C   0  0  0  0  0  0  0  0  0  0  0  0
   10.6603    0.5000    0.0000 C   0  0  0  0  0  0  0  0  0  0  0  0
   10.2942   -0.8660    0.0000 C   0  0  0  0  0  0  0  0  0  0  0  0
    9.2942    0.8660    0.0000 C   0  0  0  0  0  0  0  0  0  0  0  0
    3.7320   -1.5000    0.0000 C   0  0  0  0  0  0  0  0  0  0  0  0
    8.9282   -1.5000    0.0000 C   0  0  0  0  0  0  0  0  0  0  0  0
    4.5981   -2.0000    0.0000 C   0  0  0  0  0  0  0  0  0  0  0  0
    5.4641   -1.5000    0.0000 C   0  0  0  0  0  0  0  0  0  0  0  0
    7.1962   -1.5000    0.0000 C   0  0  0  0  0  0  0  0  0  0  0  0
    8.0622   -2.0000    0.0000 C   0  0  0  0  0  0  0  0  0  0  0  0
    4.5981   -3.0000    0.0000 C   0  0  0  0  0  0  0  0  0  0  0  0
    8.0622   -3.0000    0.0000 C   0  0  0  0  0  0  0  0  0  0  0  0
    5.4641    1.5000    0.0000 C   0  0  0  0  0  0  0  0  0  0  0  0
    5.4641    2.5000    0.0000 C   0  0  0  0  0  0  0  0  0  0  0  0
    4.5981    3.0000    0.0000 C   0  0  0  0  0  0  0  0  0  0  0  0
    6.7287    0.4749    0.0000 H   0  0  0  0  0  0  0  0  0  0  0  0
    5.9316    0.4749    0.0000 H   0  0  0  0  0  0  0  0  0  0  0  0
    2.3100    1.0369    0.0000 H   0  0  0  0  0  0  0  0  0  0  0  0
    1.4631    0.8100    0.0000 H   0  0  0  0  0  0  0  0  0  0  0  0
    1.6900   -0.0369    0.0000 H   0  0  0  0  0  0  0  0  0  0  0  0
    1.8291   -0.5560    0.0000 H   0  0  0  0  0  0  0  0  0  0  0  0
    2.0560   -1.4030    0.0000 H   0  0  0  0  0  0  0  0  0  0  0  0
    2.9030   -1.1760    0.0000 H   0  0  0  0  0  0  0  0  0  0  0  0
    3.9030    0.5560    0.0000 H   0  0  0  0  0  0  0  0  0  0  0  0
    3.6760    1.4030    0.0000 H   0  0  0  0  0  0  0  0  0  0  0  0
    2.8291    1.1760    0.0000 H   0  0  0  0  0  0  0  0  0  0  0  0
   10.9703   -0.0369    0.0000 H   0  0  0  0  0  0  0  0  0  0  0  0
   11.1972    0.8100    0.0000 H   0  0  0  0  0  0  0  0  0  0  0  0
   10.3503    1.0369    0.0000 H   0  0  0  0  0  0  0  0  0  0  0  0
    9.7573   -1.1760    0.0000 H   0  0  0  0  0  0  0  0  0  0  0  0
   10.6042   -1.4030    0.0000 H   0  0  0  0  0  0  0  0  0  0  0  0
   10.8312   -0.5560    0.0000 H   0  0  0  0  0  0  0  0  0  0  0  0
    9.8312    1.1760    0.0000 H   0  0  0  0  0  0  0  0  0  0  0  0
    8.9842    1.4030    0.0000 H   0  0  0  0  0  0  0  0  0  0  0  0
    8.7573    0.5560    0.0000 H   0  0  0  0  0  0  0  0  0  0  0  0
    3.1951   -1.8100    0.0000 H   0  0  0  0  0  0  0  0  0  0  0  0
    9.4651   -1.8100    0.0000 H   0  0  0  0  0  0  0  0  0  0  0  0
    6.0010   -1.8100    0.0000 H   0  0  0  0  0  0  0  0  0  0  0  0
    6.6592   -1.8100    0.0000 H   0  0  0  0  0  0  0  0  0  0  0  0
    3.9781   -3.0000    0.0000 H   0  0  0  0  0  0  0  0  0  0  0  0
    4.5981   -3.6200    0.0000 H   0  0  0  0  0  0  0  0  0  0  0  0
    5.2181   -3.0000    0.0000 H   0  0  0  0  0  0  0  0  0  0  0  0
    7.4422   -3.0000    0.0000 H   0  0  0  0  0  0  0  0  0  0  0  0
    8.0622   -3.6200    0.0000 H   0  0  0  0  0  0  0  0  0  0  0  0
    8.6822   -3.0000    0.0000 H   0  0  0  0  0  0  0  0  0  0  0  0
    7.5252    1.3100    0.0000 H   0  0  0  0  0  0  0  0  0  0  0  0
    6.0010    2.8100    0.0000 H   0  0  0  0  0  0  0  0  0  0  0  0
    4.5981    3.6200    0.0000 H   0  0  0  0  0  0  0  0  0  0  0  0
    4.0611    2.6900    0.0000 H   0  0  0  0  0  0  0  0  0  0  0  0
  1 11  1  0  0  0  0
  1 27  1  0  0  0  0
  2 12  1  0  0  0  0
  2 60  1  0  0  0  0
  3 27  2  0  0  0  0
  4  6  1  0  0  0  0
  4 13  1  0  0  0  0
  4 14  1  0  0  0  0
  4 15  1  0  0  0  0
  5  7  1  0  0  0  0
  5 16  1  0  0  0  0
  5 17  1  0  0  0  0
  5 18  1  0  0  0  0
  6 11  1  0  0  0  0
  6 19  2  0  0  0  0
  7 12  1  0  0  0  0
  7 20  2  0  0  0  0
  8  9  1  0  0  0  0
  8 10  1  0  0  0  0
  8 30  1  0  0  0  0
  8 31  1  0  0  0  0
  9 11  2  0  0  0  0
  9 22  1  0  0  0  0
 10 12  2  0  0  0  0
 10 23  1  0  0  0  0
 13 32  1  0  0  0  0
 13 33  1  0  0  0  0
 13 34  1  0  0  0  0
 14 35  1  0  0  0  0
 14 36  1  0  0  0  0
 14 37  1  0  0  0  0
 15 38  1  0  0  0  0
 15 39  1  0  0  0  0
 15 40  1  0  0  0  0
 16 41  1  0  0  0  0
 16 42  1  0  0  0  0
 16 43  1  0  0  0  0
 17 44  1  0  0  0  0
 17 45  1  0  0  0  0
 17 46  1  0  0  0  0
 18 47  1  0  0  0  0
 18 48  1  0  0  0  0
 18 49  1  0  0  0  0
 19 21  1  0  0  0  0
 19 50  1  0  0  0  0
 20 24  1  0  0  0  0
 20 51  1  0  0  0  0
 21 22  2  0  0  0  0
 21 25  1  0  0  0  0
 22 52  1  0  0  0  0
 23 24  2  0  0  0  0
 23 53  1  0  0  0  0
 24 26  1  0  0  0  0
 25 54  1  0  0  0  0
 25 55  1  0  0  0  0
 25 56  1  0  0  0  0
 26 57  1  0  0  0  0
 26 58  1  0  0  0  0
 26 59  1  0  0  0  0
 27 28  1  0  0  0  0
 28 29  2  0  0  0  0
 28 61  1  0  0  0  0
 29 62  1  0  0  0  0
 29 63  1  0  0  0  0
M  END
> <PUBCHEM_COMPOUND_CID>
109058

> <PUBCHEM_COMPOUND_CANONICALIZED>
1

> <PUBCHEM_CACTVS_COMPLEXITY>
567

> <PUBCHEM_CACTVS_HBOND_ACCEPTOR>
3

> <PUBCHEM_CACTVS_HBOND_DONOR>
1

> <PUBCHEM_CACTVS_ROTATABLE_BOND>
7

> <PUBCHEM_CACTVS_SUBSKEYS>
AAADcfB4MAAAAAAAAAAAAAAAAAAAAAAAAAAwYAAAAAAAAAABQAAAGgAACAAADgSAmAAyDoAABgCIAiDSCAACCAAgIAAIiAAECMgMJiKGMRqCeiCkwBEIuIeA4OwPoAACAAAIAABAAAQAABAAAAAAAAAAAA==

> <PUBCHEM_IUPAC_OPENEYE_NAME>
[2-tert-butyl-6-[(3-tert-butyl-2-hydroxy-5-methyl-phenyl)methyl]-4-methyl-phenyl] prop-2-enoate

> <PUBCHEM_IUPAC_CAS_NAME>
2-propenoic acid [2-tert-butyl-6-[(3-tert-butyl-2-hydroxy-5-methylphenyl)methyl]-4-methylphenyl] ester

> <PUBCHEM_IUPAC_NAME_MARKUP>
[2-<I>tert</I>-butyl-6-[(3-<I>tert</I>-butyl-2-hydroxy-5-methylphenyl)methyl]-4-methylphenyl] prop-2-enoate

> <PUBCHEM_IUPAC_NAME>
[2-tert-butyl-6-[(3-tert-butyl-2-hydroxy-5-methylphenyl)methyl]-4-methylphenyl] prop-2-enoate

> <PUBCHEM_IUPAC_SYSTEMATIC_NAME>
[2-tert-butyl-6-[(3-tert-butyl-5-methyl-2-oxidanyl-phenyl)methyl]-4-methyl-phenyl] prop-2-enoate

> <PUBCHEM_IUPAC_TRADITIONAL_NAME>
acrylic acid [2-tert-butyl-6-(3-tert-butyl-2-hydroxy-5-methyl-benzyl)-4-methyl-phenyl] ester

> <PUBCHEM_IUPAC_INCHI>
InChI=1S/C26H34O3/c1-10-22(27)29-24-19(12-17(3)14-21(24)26(7,8)9)15-18-11-16(2)13-20(23(18)28)25(4,5)6/h10-14,28H,1,15H2,2-9H3

> <PUBCHEM_IUPAC_INCHIKEY>
IORUEKDKNHHQAL-UHFFFAOYSA-N

> <PUBCHEM_XLOGP3_AA>
7.9

> <PUBCHEM_EXACT_MASS>
394.25079494

> <PUBCHEM_MOLECULAR_FORMULA>
C26H34O3

> <PUBCHEM_MOLECULAR_WEIGHT>
394.5

> <PUBCHEM_SMILES>
CC1=CC(=C(C(=C1)C(C)(C)C)O)CC2=C(C(=CC(=C2)C)C(C)(C)C)OC(=O)C=C

> <PUBCHEM_OPENEYE_CAN_SMILES>
CC1=CC(=C(C(=C1)C(C)(C)C)O)CC2=C(C(=CC(=C2)C)C(C)(C)C)OC(=O)C=C

> <PUBCHEM_OPENEYE_ISO_SMILES>
CC1=CC(=C(C(=C1)C(C)(C)C)O)CC2=C(C(=CC(=C2)C)C(C)(C)C)OC(=O)C=C

> <PUBCHEM_CACTVS_TPSA>
46.5

> <PUBCHEM_MONOISOTOPIC_WEIGHT>
394.25079494

> <PUBCHEM_TOTAL_CHARGE>
0

> <PUBCHEM_HEAVY_ATOM_COUNT>
29

> <PUBCHEM_ATOM_DEF_STEREO_COUNT>
0

> <PUBCHEM_ATOM_UDEF_STEREO_COUNT>
0

> <PUBCHEM_BOND_DEF_STEREO_COUNT>
0

> <PUBCHEM_BOND_UDEF_STEREO_COUNT>
0

> <PUBCHEM_ISOTOPIC_ATOM_COUNT>
0

> <PUBCHEM_COMPONENT_COUNT>
1

> <PUBCHEM_CACTVS_TAUTO_COUNT>
-1

> <PUBCHEM_COORDINATE_TYPE>
1
5
255

> <PUBCHEM_BONDANNOTATIONS>
10  12  8
10  23  8
19  21  8
20  24  8
21  22  8
23  24  8
6  11  8
6  19  8
7  12  8
7  20  8
9  11  8
9  22  8

$$$$
