110674
  -OEChem-04042512262D

 97101  0     1  0  0  0  0  0999 V2000
    6.3301    3.2500    0.0000 Cl  0  0  0  0  0  0  0  0  0  0  0  0
    2.0000   -9.2500    0.0000 Cl  0  0  0  0  0  0  0  0  0  0  0  0
   17.5885    7.7500    0.0000 Cl  0  0  0  0  0  0  0  0  0  0  0  0
    4.5981   -1.7500    0.0000 Cl  0  0  0  0  0  0  0  0  0  0  0  0
    9.7942    9.2500    0.0000 Cl  0  0  0  0  0  0  0  0  0  0  0  0
    6.3301    0.2500    0.0000 O   0  0  0  0  0  0  0  0  0  0  0  0
    9.7942    4.2500    0.0000 O   0  0  0  0  0  0  0  0  0  0  0  0
    8.9282   -1.2500    0.0000 O   0  0  0  0  0  0  0  0  0  0  0  0
    7.1962    5.7500    0.0000 O   0  0  0  0  0  0  0  0  0  0  0  0
    5.4641   -6.2500    0.0000 O   0  0  0  0  0  0  0  0  0  0  0  0
   13.2583    6.2500    0.0000 O   0  0  0  0  0  0  0  0  0  0  0  0
    8.0622    0.2500    0.0000 N   0  0  0  0  0  0  0  0  0  0  0  0
    8.0622    4.2500    0.0000 N   0  0  0  0  0  0  0  0  0  0  0  0
    6.3301   -1.7500    0.0000 N   0  0  0  0  0  0  0  0  0  0  0  0
    9.7942    6.2500    0.0000 N   0  0  0  0  0  0  0  0  0  0  0  0
    3.7320   -6.2500    0.0000 N   0  0  0  0  0  0  0  0  0  0  0  0
   14.1244    7.7500    0.0000 N   0  0  0  0  0  0  0  0  0  0  0  0
    6.3301   -2.7500    0.0000 N   0  0  0  0  0  0  0  0  0  0  0  0
    9.7942    7.2500    0.0000 N   0  0  0  0  0  0  0  0  0  0  0  0
    8.9282    1.7500    0.0000 C   0  0  0  0  0  0  0  0  0  0  0  0
    8.0622    1.2500    0.0000 C   0  0  0  0  0  0  0  0  0  0  0  0
    8.0622    3.2500    0.0000 C   0  0  0  0  0  0  0  0  0  0  0  0
    8.9282    2.7500    0.0000 C   0  0  0  0  0  0  0  0  0  0  0  0
    7.1962    1.7500    0.0000 C   0  0  0  0  0  0  0  0  0  0  0  0
    7.1962    2.7500    0.0000 C   0  0  0  0  0  0  0  0  0  0  0  0
    9.7942    1.2500    0.0000 C   0  0  0  0  0  0  0  0  0  0  0  0
    7.1962   -1.2500    0.0000 C   0  0  3  0  0  0  0  0  0  0  0  0
    7.1962   -0.2500    0.0000 C   0  0  0  0  0  0  0  0  0  0  0  0
    8.9282    5.7500    0.0000 C   0  0  3  0  0  0  0  0  0  0  0  0
    8.9282    4.7500    0.0000 C   0  0  0  0  0  0  0  0  0  0  0  0
    8.0622   -1.7500    0.0000 C   0  0  0  0  0  0  0  0  0  0  0  0
    8.0622    6.2500    0.0000 C   0  0  0  0  0  0  0  0  0  0  0  0
    3.7320   -7.2500    0.0000 C   0  0  0  0  0  0  0  0  0  0  0  0
   14.9904    7.2500    0.0000 C   0  0  0  0  0  0  0  0  0  0  0  0
    4.5981   -4.7500    0.0000 C   0  0  0  0  0  0  0  0  0  0  0  0
    2.8660   -7.7500    0.0000 C   0  0  0  0  0  0  0  0  0  0  0  0
   15.8564    7.7500    0.0000 C   0  0  0  0  0  0  0  0  0  0  0  0
   12.3923    7.7500    0.0000 C   0  0  0  0  0  0  0  0  0  0  0  0
    5.4641   -3.2500    0.0000 C   0  0  0  0  0  0  0  0  0  0  0  0
   10.6603    7.7500    0.0000 C   0  0  0  0  0  0  0  0  0  0  0  0
    5.4641   -4.2500    0.0000 C   0  0  0  0  0  0  0  0  0  0  0  0
    8.0622   -2.7500    0.0000 C   0  0  0  0  0  0  0  0  0  0  0  0
   11.5263    7.2500    0.0000 C   0  0  0  0  0  0  0  0  0  0  0  0
    4.5981   -5.7500    0.0000 C   0  0  0  0  0  0  0  0  0  0  0  0
   13.2583    7.2500    0.0000 C   0  0  0  0  0  0  0  0  0  0  0  0
    8.0622    7.2500    0.0000 C   0  0  0  0  0  0  0  0  0  0  0  0
    4.5981   -7.7500    0.0000 C   0  0  0  0  0  0  0  0  0  0  0  0
   14.9904    6.2500    0.0000 C   0  0  0  0  0  0  0  0  0  0  0  0
    3.7320   -4.2500    0.0000 C   0  0  0  0  0  0  0  0  0  0  0  0
   12.3923    8.7500    0.0000 C   0  0  0  0  0  0  0  0  0  0  0  0
    2.8660   -8.7500    0.0000 C   0  0  0  0  0  0  0  0  0  0  0  0
   16.7224    7.2500    0.0000 C   0  0  0  0  0  0  0  0  0  0  0  0
    4.5981   -2.7500    0.0000 C   0  0  0  0  0  0  0  0  0  0  0  0
   10.6603    8.7500    0.0000 C   0  0  0  0  0  0  0  0  0  0  0  0
    2.0000   -7.2500    0.0000 C   0  0  0  0  0  0  0  0  0  0  0  0
   15.8564    8.7500    0.0000 C   0  0  0  0  0  0  0  0  0  0  0  0
    3.7320   -3.2500    0.0000 C   0  0  0  0  0  0  0  0  0  0  0  0
   11.5263    9.2500    0.0000 C   0  0  0  0  0  0  0  0  0  0  0  0
    4.5981   -8.7500    0.0000 C   0  0  0  0  0  0  0  0  0  0  0  0
   15.8564    5.7500    0.0000 C   0  0  0  0  0  0  0  0  0  0  0  0
    3.7320   -9.2500    0.0000 C   0  0  0  0  0  0  0  0  0  0  0  0
   16.7224    6.2500    0.0000 C   0  0  0  0  0  0  0  0  0  0  0  0
    9.4651    3.0600    0.0000 H   0  0  0  0  0  0  0  0  0  0  0  0
    6.6592    1.4400    0.0000 H   0  0  0  0  0  0  0  0  0  0  0  0
    8.5991   -0.0600    0.0000 H   0  0  0  0  0  0  0  0  0  0  0  0
    9.4842    0.7131    0.0000 H   0  0  0  0  0  0  0  0  0  0  0  0
   10.3312    0.9400    0.0000 H   0  0  0  0  0  0  0  0  0  0  0  0
   10.1042    1.7869    0.0000 H   0  0  0  0  0  0  0  0  0  0  0  0
    7.5252    4.5600    0.0000 H   0  0  0  0  0  0  0  0  0  0  0  0
    6.6592   -0.9400    0.0000 H   0  0  0  0  0  0  0  0  0  0  0  0
    9.4651    5.4400    0.0000 H   0  0  0  0  0  0  0  0  0  0  0  0
    6.0010   -4.5600    0.0000 H   0  0  0  0  0  0  0  0  0  0  0  0
    3.1951   -5.9400    0.0000 H   0  0  0  0  0  0  0  0  0  0  0  0
   14.1244    8.3700    0.0000 H   0  0  0  0  0  0  0  0  0  0  0  0
   11.5263    6.6300    0.0000 H   0  0  0  0  0  0  0  0  0  0  0  0
    7.4422   -2.7500    0.0000 H   0  0  0  0  0  0  0  0  0  0  0  0
    8.0622   -3.3700    0.0000 H   0  0  0  0  0  0  0  0  0  0  0  0
    8.6822   -2.7500    0.0000 H   0  0  0  0  0  0  0  0  0  0  0  0
    8.6822    7.2500    0.0000 H   0  0  0  0  0  0  0  0  0  0  0  0
    8.0622    7.8700    0.0000 H   0  0  0  0  0  0  0  0  0  0  0  0
    7.4422    7.2500    0.0000 H   0  0  0  0  0  0  0  0  0  0  0  0
    5.1350   -7.4400    0.0000 H   0  0  0  0  0  0  0  0  0  0  0  0
   14.4534    5.9400    0.0000 H   0  0  0  0  0  0  0  0  0  0  0  0
    3.1951   -4.5600    0.0000 H   0  0  0  0  0  0  0  0  0  0  0  0
   12.9292    9.0600    0.0000 H   0  0  0  0  0  0  0  0  0  0  0  0
    2.3100   -6.7131    0.0000 H   0  0  0  0  0  0  0  0  0  0  0  0
    1.4631   -6.9400    0.0000 H   0  0  0  0  0  0  0  0  0  0  0  0
    1.6900   -7.7869    0.0000 H   0  0  0  0  0  0  0  0  0  0  0  0
   16.4764    8.7500    0.0000 H   0  0  0  0  0  0  0  0  0  0  0  0
   15.8564    9.3700    0.0000 H   0  0  0  0  0  0  0  0  0  0  0  0
   15.2364    8.7500    0.0000 H   0  0  0  0  0  0  0  0  0  0  0  0
    3.1951   -2.9400    0.0000 H   0  0  0  0  0  0  0  0  0  0  0  0
   11.5263    9.8700    0.0000 H   0  0  0  0  0  0  0  0  0  0  0  0
    5.1350   -9.0600    0.0000 H   0  0  0  0  0  0  0  0  0  0  0  0
   15.8564    5.1300    0.0000 H   0  0  0  0  0  0  0  0  0  0  0  0
    3.7320   -9.8700    0.0000 H   0  0  0  0  0  0  0  0  0  0  0  0
   17.2594    5.9400    0.0000 H   0  0  0  0  0  0  0  0  0  0  0  0
  1 25  1  0  0  0  0
  2 51  1  0  0  0  0
  3 52  1  0  0  0  0
  4 53  1  0  0  0  0
  5 54  1  0  0  0  0
  6 28  2  0  0  0  0
  7 30  2  0  0  0  0
  8 31  2  0  0  0  0
  9 32  2  0  0  0  0
 10 44  2  0  0  0  0
 11 45  2  0  0  0  0
 12 21  1  0  0  0  0
 12 28  1  0  0  0  0
 12 65  1  0  0  0  0
 13 22  1  0  0  0  0
 13 30  1  0  0  0  0
 13 69  1  0  0  0  0
 14 18  2  0  0  0  0
 14 27  1  0  0  0  0
 15 19  2  0  0  0  0
 15 29  1  0  0  0  0
 16 33  1  0  0  0  0
 16 44  1  0  0  0  0
 16 73  1  0  0  0  0
 17 34  1  0  0  0  0
 17 45  1  0  0  0  0
 17 74  1  0  0  0  0
 18 39  1  0  0  0  0
 19 40  1  0  0  0  0
 20 21  1  0  0  0  0
 20 23  2  0  0  0  0
 20 26  1  0  0  0  0
 21 24  2  0  0  0  0
 22 23  1  0  0  0  0
 22 25  2  0  0  0  0
 23 63  1  0  0  0  0
 24 25  1  0  0  0  0
 24 64  1  0  0  0  0
 26 66  1  0  0  0  0
 26 67  1  0  0  0  0
 26 68  1  0  0  0  0
 27 28  1  0  0  0  0
 27 31  1  0  0  0  0
 27 70  1  0  0  0  0
 29 30  1  0  0  0  0
 29 32  1  0  0  0  0
 29 71  1  0  0  0  0
 31 42  1  0  0  0  0
 32 46  1  0  0  0  0
 33 36  2  0  0  0  0
 33 47  1  0  0  0  0
 34 37  2  0  0  0  0
 34 48  1  0  0  0  0
 35 41  2  0  0  0  0
 35 44  1  0  0  0  0
 35 49  1  0  0  0  0
 36 51  1  0  0  0  0
 36 55  1  0  0  0  0
 37 52  1  0  0  0  0
 37 56  1  0  0  0  0
 38 43  2  0  0  0  0
 38 45  1  0  0  0  0
 38 50  1  0  0  0  0
 39 41  1  0  0  0  0
 39 53  2  0  0  0  0
 40 43  1  0  0  0  0
 40 54  2  0  0  0  0
 41 72  1  0  0  0  0
 42 76  1  0  0  0  0
 42 77  1  0  0  0  0
 42 78  1  0  0  0  0
 43 75  1  0  0  0  0
 46 79  1  0  0  0  0
 46 80  1  0  0  0  0
 46 81  1  0  0  0  0
 47 59  2  0  0  0  0
 47 82  1  0  0  0  0
 48 60  2  0  0  0  0
 48 83  1  0  0  0  0
 49 57  2  0  0  0  0
 49 84  1  0  0  0  0
 50 58  2  0  0  0  0
 50 85  1  0  0  0  0
 51 61  2  0  0  0  0
 52 62  2  0  0  0  0
 53 57  1  0  0  0  0
 54 58  1  0  0  0  0
 55 86  1  0  0  0  0
 55 87  1  0  0  0  0
 55 88  1  0  0  0  0
 56 89  1  0  0  0  0
 56 90  1  0  0  0  0
 56 91  1  0  0  0  0
 57 92  1  0  0  0  0
 58 93  1  0  0  0  0
 59 61  1  0  0  0  0
 59 94  1  0  0  0  0
 60 62  1  0  0  0  0
 60 95  1  0  0  0  0
 61 96  1  0  0  0  0
 62 97  1  0  0  0  0
M  END
> <PUBCHEM_COMPOUND_CID>
110674

> <PUBCHEM_COMPOUND_CANONICALIZED>
1

> <PUBCHEM_CACTVS_COMPLEXITY>
1680

> <PUBCHEM_CACTVS_HBOND_ACCEPTOR>
10

> <PUBCHEM_CACTVS_HBOND_DONOR>
4

> <PUBCHEM_CACTVS_ROTATABLE_BOND>
14

> <PUBCHEM_CACTVS_SUBSKEYS>
AAADcfB/+AAHAAAAAAAAAAAAAAAAAAAAAAAwYMGDAAAAAAABVAAAHgIYAAAADC7BmCQywILAAACKAqVSUACCAAAlBwAIiAGAZsgIYDrJl5HUIQhglADIyYcciACOBACAQAIDABAIAQCABAYAIAAAAAAAAA==

> <PUBCHEM_IUPAC_OPENEYE_NAME>
4-chloro-3-[1-[[5-chloro-4-[[2-[2-chloro-5-[(3-chloro-2-methyl-phenyl)carbamoyl]phenyl]azo-3-oxo-butanoyl]amino]-2-methyl-phenyl]carbamoyl]-2-oxo-propyl]azo-N-(3-chloro-2-methyl-phenyl)benzamide

> <PUBCHEM_IUPAC_CAS_NAME>
4-chloro-3-[1-[5-chloro-4-[[2-[2-chloro-5-[(3-chloro-2-methylanilino)-oxomethyl]phenyl]azo-1,3-dioxobutyl]amino]-2-methylanilino]-1,3-dioxobutan-2-yl]azo-N-(3-chloro-2-methylphenyl)benzamide

> <PUBCHEM_IUPAC_NAME_MARKUP>
4-chloro-3-[[1-[5-chloro-4-[[2-[[2-chloro-5-[(3-chloro-2-methylphenyl)carbamoyl]phenyl]diazenyl]-3-oxobutanoyl]amino]-2-methylanilino]-1,3-dioxobutan-2-yl]diazenyl]-<I>N</I>-(3-chloro-2-methylphenyl)benzamide

> <PUBCHEM_IUPAC_NAME>
4-chloro-3-[[1-[5-chloro-4-[[2-[[2-chloro-5-[(3-chloro-2-methylphenyl)carbamoyl]phenyl]diazenyl]-3-oxobutanoyl]amino]-2-methylanilino]-1,3-dioxobutan-2-yl]diazenyl]-N-(3-chloro-2-methylphenyl)benzamide

> <PUBCHEM_IUPAC_SYSTEMATIC_NAME>
4-chloranyl-3-[[1-[[5-chloranyl-4-[[2-[[2-chloranyl-5-[(3-chloranyl-2-methyl-phenyl)carbamoyl]phenyl]diazenyl]-3-oxidanylidene-butanoyl]amino]-2-methyl-phenyl]amino]-1,3-bis(oxidanylidene)butan-2-yl]diazenyl]-N-(3-chloranyl-2-methyl-phenyl)benzamide

> <PUBCHEM_IUPAC_TRADITIONAL_NAME>
4-chloro-3-[1-[[5-chloro-4-[[2-[2-chloro-5-[(3-chloro-2-methyl-phenyl)carbamoyl]phenyl]azo-3-keto-butanoyl]amino]-2-methyl-phenyl]carbamoyl]-2-keto-propyl]azo-N-(3-chloro-2-methyl-phenyl)benzamide

> <PUBCHEM_IUPAC_INCHI>
InChI=1S/C43H35Cl5N8O6/c1-20-16-35(52-43(62)39(24(5)58)56-54-37-18-26(13-15-30(37)47)41(60)50-33-11-7-9-28(45)22(33)3)31(48)19-34(20)51-42(61)38(23(4)57)55-53-36-17-25(12-14-29(36)46)40(59)49-32-10-6-8-27(44)21(32)2/h6-19,38-39H,1-5H3,(H,49,59)(H,50,60)(H,51,61)(H,52,62)

> <PUBCHEM_IUPAC_INCHIKEY>
PFTIMORLWNOYIQ-UHFFFAOYSA-N

> <PUBCHEM_XLOGP3_AA>
11.1

> <PUBCHEM_EXACT_MASS>
936.109269

> <PUBCHEM_MOLECULAR_FORMULA>
C43H35Cl5N8O6

> <PUBCHEM_MOLECULAR_WEIGHT>
937.0

> <PUBCHEM_SMILES>
CC1=CC(=C(C=C1NC(=O)C(C(=O)C)N=NC2=C(C=CC(=C2)C(=O)NC3=C(C(=CC=C3)Cl)C)Cl)Cl)NC(=O)C(C(=O)C)N=NC4=C(C=CC(=C4)C(=O)NC5=C(C(=CC=C5)Cl)C)Cl

> <PUBCHEM_OPENEYE_CAN_SMILES>
CC1=CC(=C(C=C1NC(=O)C(C(=O)C)N=NC2=C(C=CC(=C2)C(=O)NC3=C(C(=CC=C3)Cl)C)Cl)Cl)NC(=O)C(C(=O)C)N=NC4=C(C=CC(=C4)C(=O)NC5=C(C(=CC=C5)Cl)C)Cl

> <PUBCHEM_OPENEYE_ISO_SMILES>
CC1=CC(=C(C=C1NC(=O)C(C(=O)C)N=NC2=C(C=CC(=C2)C(=O)NC3=C(C(=CC=C3)Cl)C)Cl)Cl)NC(=O)C(C(=O)C)N=NC4=C(C=CC(=C4)C(=O)NC5=C(C(=CC=C5)Cl)C)Cl

> <PUBCHEM_CACTVS_TPSA>
200

> <PUBCHEM_MONOISOTOPIC_WEIGHT>
934.112219

> <PUBCHEM_TOTAL_CHARGE>
0

> <PUBCHEM_HEAVY_ATOM_COUNT>
62

> <PUBCHEM_ATOM_DEF_STEREO_COUNT>
0

> <PUBCHEM_ATOM_UDEF_STEREO_COUNT>
2

> <PUBCHEM_BOND_DEF_STEREO_COUNT>
0

> <PUBCHEM_BOND_UDEF_STEREO_COUNT>
0

> <PUBCHEM_ISOTOPIC_ATOM_COUNT>
0

> <PUBCHEM_COMPONENT_COUNT>
1

> <PUBCHEM_CACTVS_TAUTO_COUNT>
-1

> <PUBCHEM_COORDINATE_TYPE>
1
5
255

> <PUBCHEM_BONDANNOTATIONS>
20  21  8
20  23  8
21  24  8
22  23  8
22  25  8
24  25  8
27  31  3
29  32  3
33  36  8
33  47  8
34  37  8
34  48  8
35  41  8
35  49  8
36  51  8
37  52  8
38  43  8
38  50  8
39  41  8
39  53  8
40  43  8
40  54  8
47  59  8
48  60  8
49  57  8
50  58  8
51  61  8
52  62  8
53  57  8
54  58  8
59  61  8
60  62  8

$$$$
