11115306
  -OEChem-04042505432D

117120  0     0  0  0  0  0  0999 V2000
    3.1340    1.5000    0.0000 O   0  0  0  0  0  0  0  0  0  0  0  0
    4.8660    1.5000    0.0000 O   0  0  0  0  0  0  0  0  0  0  0  0
    3.1340   -1.5000    0.0000 O   0  0  0  0  0  0  0  0  0  0  0  0
    4.8660   -1.5000    0.0000 O   0  0  0  0  0  0  0  0  0  0  0  0
    4.5000    4.5981    0.0000 O   0  0  0  0  0  0  0  0  0  0  0  0
    3.5000   -4.5981    0.0000 O   0  0  0  0  0  0  0  0  0  0  0  0
    6.0000    5.4641    0.0000 O   0  0  0  0  0  0  0  0  0  0  0  0
    2.0000   -5.4641    0.0000 O   0  0  0  0  0  0  0  0  0  0  0  0
    3.0000   10.6603    0.0000 O   0  0  0  0  0  0  0  0  0  0  0  0
    5.0000  -10.6603    0.0000 O   0  0  0  0  0  0  0  0  0  0  0  0
    4.0000    0.0000    0.0000 C   0  0  0  0  0  0  0  0  0  0  0  0
    3.1340    0.5000    0.0000 C   0  0  0  0  0  0  0  0  0  0  0  0
    4.8660    0.5000    0.0000 C   0  0  0  0  0  0  0  0  0  0  0  0
    3.1340   -0.5000    0.0000 C   0  0  0  0  0  0  0  0  0  0  0  0
    4.8660   -0.5000    0.0000 C   0  0  0  0  0  0  0  0  0  0  0  0
    4.0000    2.0000    0.0000 C   0  0  0  0  0  0  0  0  0  0  0  0
    4.0000   -2.0000    0.0000 C   0  0  0  0  0  0  0  0  0  0  0  0
    4.5000    2.8660    0.0000 C   0  0  0  0  0  0  0  0  0  0  0  0
    3.5000   -2.8660    0.0000 C   0  0  0  0  0  0  0  0  0  0  0  0
    5.0000    3.7320    0.0000 C   0  0  0  0  0  0  0  0  0  0  0  0
    3.0000   -3.7320    0.0000 C   0  0  0  0  0  0  0  0  0  0  0  0
    5.3660    2.3660    0.0000 C   0  0  0  0  0  0  0  0  0  0  0  0
    3.6340    3.3660    0.0000 C   0  0  0  0  0  0  0  0  0  0  0  0
    2.6340   -2.3660    0.0000 C   0  0  0  0  0  0  0  0  0  0  0  0
    4.3660   -3.3660    0.0000 C   0  0  0  0  0  0  0  0  0  0  0  0
    5.0000    5.4641    0.0000 C   0  0  0  0  0  0  0  0  0  0  0  0
    3.0000   -5.4641    0.0000 C   0  0  0  0  0  0  0  0  0  0  0  0
    4.5000    6.3301    0.0000 C   0  0  0  0  0  0  0  0  0  0  0  0
    3.5000   -6.3301    0.0000 C   0  0  0  0  0  0  0  0  0  0  0  0
    5.0000    7.1962    0.0000 C   0  0  0  0  0  0  0  0  0  0  0  0
    3.0000   -7.1962    0.0000 C   0  0  0  0  0  0  0  0  0  0  0  0
    4.5000    8.0622    0.0000 C   0  0  0  0  0  0  0  0  0  0  0  0
    3.5000   -8.0622    0.0000 C   0  0  0  0  0  0  0  0  0  0  0  0
    5.0000   10.6603    0.0000 C   0  0  0  0  0  0  0  0  0  0  0  0
    3.0000  -10.6603    0.0000 C   0  0  0  0  0  0  0  0  0  0  0  0
    4.5000    9.7942    0.0000 C   0  0  0  0  0  0  0  0  0  0  0  0
    3.5000   -9.7942    0.0000 C   0  0  0  0  0  0  0  0  0  0  0  0
    5.0000    8.9282    0.0000 C   0  0  0  0  0  0  0  0  0  0  0  0
    3.0000   -8.9282    0.0000 C   0  0  0  0  0  0  0  0  0  0  0  0
    3.5000    8.0622    0.0000 C   0  0  0  0  0  0  0  0  0  0  0  0
    4.5000   -8.0622    0.0000 C   0  0  0  0  0  0  0  0  0  0  0  0
    3.5000    9.7942    0.0000 C   0  0  0  0  0  0  0  0  0  0  0  0
    4.5000   -9.7942    0.0000 C   0  0  0  0  0  0  0  0  0  0  0  0
    3.0000    8.9282    0.0000 C   0  0  0  0  0  0  0  0  0  0  0  0
    5.0000   -8.9282    0.0000 C   0  0  0  0  0  0  0  0  0  0  0  0
    5.5000   11.5263    0.0000 C   0  0  0  0  0  0  0  0  0  0  0  0
    5.8660   10.1603    0.0000 C   0  0  0  0  0  0  0  0  0  0  0  0
    4.1340   11.1603    0.0000 C   0  0  0  0  0  0  0  0  0  0  0  0
    2.5000  -11.5263    0.0000 C   0  0  0  0  0  0  0  0  0  0  0  0
    2.1340  -10.1603    0.0000 C   0  0  0  0  0  0  0  0  0  0  0  0
    3.8660  -11.1603    0.0000 C   0  0  0  0  0  0  0  0  0  0  0  0
    2.0000    8.9282    0.0000 C   0  0  0  0  0  0  0  0  0  0  0  0
    6.0000   -8.9282    0.0000 C   0  0  0  0  0  0  0  0  0  0  0  0
    2.5234    0.6077    0.0000 H   0  0  0  0  0  0  0  0  0  0  0  0
    2.9219   -0.0826    0.0000 H   0  0  0  0  0  0  0  0  0  0  0  0
    5.0781   -0.0826    0.0000 H   0  0  0  0  0  0  0  0  0  0  0  0
    5.4766    0.6077    0.0000 H   0  0  0  0  0  0  0  0  0  0  0  0
    2.9219    0.0826    0.0000 H   0  0  0  0  0  0  0  0  0  0  0  0
    2.5234   -0.6077    0.0000 H   0  0  0  0  0  0  0  0  0  0  0  0
    5.4766   -0.6077    0.0000 H   0  0  0  0  0  0  0  0  0  0  0  0
    5.0781    0.0826    0.0000 H   0  0  0  0  0  0  0  0  0  0  0  0
    3.6900    2.5369    0.0000 H   0  0  0  0  0  0  0  0  0  0  0  0
    4.3100   -2.5369    0.0000 H   0  0  0  0  0  0  0  0  0  0  0  0
    5.4750    3.3335    0.0000 H   0  0  0  0  0  0  0  0  0  0  0  0
    5.4750    4.1306    0.0000 H   0  0  0  0  0  0  0  0  0  0  0  0
    2.5250   -3.3335    0.0000 H   0  0  0  0  0  0  0  0  0  0  0  0
    2.5250   -4.1306    0.0000 H   0  0  0  0  0  0  0  0  0  0  0  0
    5.0560    1.8291    0.0000 H   0  0  0  0  0  0  0  0  0  0  0  0
    5.9030    2.0560    0.0000 H   0  0  0  0  0  0  0  0  0  0  0  0
    5.6760    2.9030    0.0000 H   0  0  0  0  0  0  0  0  0  0  0  0
    3.9440    3.9030    0.0000 H   0  0  0  0  0  0  0  0  0  0  0  0
    3.0970    3.6760    0.0000 H   0  0  0  0  0  0  0  0  0  0  0  0
    3.3240    2.8291    0.0000 H   0  0  0  0  0  0  0  0  0  0  0  0
    2.9440   -1.8291    0.0000 H   0  0  0  0  0  0  0  0  0  0  0  0
    2.0970   -2.0560    0.0000 H   0  0  0  0  0  0  0  0  0  0  0  0
    2.3240   -2.9030    0.0000 H   0  0  0  0  0  0  0  0  0  0  0  0
    4.0560   -3.9030    0.0000 H   0  0  0  0  0  0  0  0  0  0  0  0
    4.9030   -3.6760    0.0000 H   0  0  0  0  0  0  0  0  0  0  0  0
    4.6760   -2.8291    0.0000 H   0  0  0  0  0  0  0  0  0  0  0  0
    4.0250    6.7287    0.0000 H   0  0  0  0  0  0  0  0  0  0  0  0
    4.0250    5.9316    0.0000 H   0  0  0  0  0  0  0  0  0  0  0  0
    3.9750   -6.7287    0.0000 H   0  0  0  0  0  0  0  0  0  0  0  0
    3.9750   -5.9316    0.0000 H   0  0  0  0  0  0  0  0  0  0  0  0
    5.4750    6.7976    0.0000 H   0  0  0  0  0  0  0  0  0  0  0  0
    5.4750    7.5947    0.0000 H   0  0  0  0  0  0  0  0  0  0  0  0
    2.5250   -6.7976    0.0000 H   0  0  0  0  0  0  0  0  0  0  0  0
    2.5250   -7.5947    0.0000 H   0  0  0  0  0  0  0  0  0  0  0  0
    5.6200    8.9282    0.0000 H   0  0  0  0  0  0  0  0  0  0  0  0
    2.3800   -8.9282    0.0000 H   0  0  0  0  0  0  0  0  0  0  0  0
    3.1900    7.5252    0.0000 H   0  0  0  0  0  0  0  0  0  0  0  0
    4.8100   -7.5252    0.0000 H   0  0  0  0  0  0  0  0  0  0  0  0
    6.0369   11.2163    0.0000 H   0  0  0  0  0  0  0  0  0  0  0  0
    5.8100   12.0632    0.0000 H   0  0  0  0  0  0  0  0  0  0  0  0
    4.9631   11.8363    0.0000 H   0  0  0  0  0  0  0  0  0  0  0  0
    5.5560    9.6233    0.0000 H   0  0  0  0  0  0  0  0  0  0  0  0
    6.4030    9.8503    0.0000 H   0  0  0  0  0  0  0  0  0  0  0  0
    6.1760   10.6972    0.0000 H   0  0  0  0  0  0  0  0  0  0  0  0
    4.4440   11.6972    0.0000 H   0  0  0  0  0  0  0  0  0  0  0  0
    3.5970   11.4703    0.0000 H   0  0  0  0  0  0  0  0  0  0  0  0
    3.8240   10.6233    0.0000 H   0  0  0  0  0  0  0  0  0  0  0  0
    1.9631  -11.2163    0.0000 H   0  0  0  0  0  0  0  0  0  0  0  0
    2.1900  -12.0632    0.0000 H   0  0  0  0  0  0  0  0  0  0  0  0
    3.0369  -11.8363    0.0000 H   0  0  0  0  0  0  0  0  0  0  0  0
    2.4440   -9.6233    0.0000 H   0  0  0  0  0  0  0  0  0  0  0  0
    1.5970   -9.8503    0.0000 H   0  0  0  0  0  0  0  0  0  0  0  0
    1.8240  -10.6972    0.0000 H   0  0  0  0  0  0  0  0  0  0  0  0
    3.5560  -11.6972    0.0000 H   0  0  0  0  0  0  0  0  0  0  0  0
    4.4030  -11.4703    0.0000 H   0  0  0  0  0  0  0  0  0  0  0  0
    4.1760  -10.6233    0.0000 H   0  0  0  0  0  0  0  0  0  0  0  0
    2.0000    9.5482    0.0000 H   0  0  0  0  0  0  0  0  0  0  0  0
    1.3800    8.9282    0.0000 H   0  0  0  0  0  0  0  0  0  0  0  0
    2.0000    8.3082    0.0000 H   0  0  0  0  0  0  0  0  0  0  0  0
    6.0000   -9.5482    0.0000 H   0  0  0  0  0  0  0  0  0  0  0  0
    6.6200   -8.9282    0.0000 H   0  0  0  0  0  0  0  0  0  0  0  0
    6.0000   -8.3082    0.0000 H   0  0  0  0  0  0  0  0  0  0  0  0
    2.3800   10.6603    0.0000 H   0  0  0  0  0  0  0  0  0  0  0  0
    5.6200  -10.6603    0.0000 H   0  0  0  0  0  0  0  0  0  0  0  0
  1 12  1  0  0  0  0
  1 16  1  0  0  0  0
  2 13  1  0  0  0  0
  2 16  1  0  0  0  0
  3 14  1  0  0  0  0
  3 17  1  0  0  0  0
  4 15  1  0  0  0  0
  4 17  1  0  0  0  0
  5 20  1  0  0  0  0
  5 26  1  0  0  0  0
  6 21  1  0  0  0  0
  6 27  1  0  0  0  0
  7 26  2  0  0  0  0
  8 27  2  0  0  0  0
  9 42  1  0  0  0  0
  9116  1  0  0  0  0
 10 43  1  0  0  0  0
 10117  1  0  0  0  0
 11 12  1  0  0  0  0
 11 13  1  0  0  0  0
 11 14  1  0  0  0  0
 11 15  1  0  0  0  0
 12 54  1  0  0  0  0
 12 55  1  0  0  0  0
 13 56  1  0  0  0  0
 13 57  1  0  0  0  0
 14 58  1  0  0  0  0
 14 59  1  0  0  0  0
 15 60  1  0  0  0  0
 15 61  1  0  0  0  0
 16 18  1  0  0  0  0
 16 62  1  0  0  0  0
 17 19  1  0  0  0  0
 17 63  1  0  0  0  0
 18 20  1  0  0  0  0
 18 22  1  0  0  0  0
 18 23  1  0  0  0  0
 19 21  1  0  0  0  0
 19 24  1  0  0  0  0
 19 25  1  0  0  0  0
 20 64  1  0  0  0  0
 20 65  1  0  0  0  0
 21 66  1  0  0  0  0
 21 67  1  0  0  0  0
 22 68  1  0  0  0  0
 22 69  1  0  0  0  0
 22 70  1  0  0  0  0
 23 71  1  0  0  0  0
 23 72  1  0  0  0  0
 23 73  1  0  0  0  0
 24 74  1  0  0  0  0
 24 75  1  0  0  0  0
 24 76  1  0  0  0  0
 25 77  1  0  0  0  0
 25 78  1  0  0  0  0
 25 79  1  0  0  0  0
 26 28  1  0  0  0  0
 27 29  1  0  0  0  0
 28 30  1  0  0  0  0
 28 80  1  0  0  0  0
 28 81  1  0  0  0  0
 29 31  1  0  0  0  0
 29 82  1  0  0  0  0
 29 83  1  0  0  0  0
 30 32  1  0  0  0  0
 30 84  1  0  0  0  0
 30 85  1  0  0  0  0
 31 33  1  0  0  0  0
 31 86  1  0  0  0  0
 31 87  1  0  0  0  0
 32 38  2  0  0  0  0
 32 40  1  0  0  0  0
 33 39  2  0  0  0  0
 33 41  1  0  0  0  0
 34 36  1  0  0  0  0
 34 46  1  0  0  0  0
 34 47  1  0  0  0  0
 34 48  1  0  0  0  0
 35 37  1  0  0  0  0
 35 49  1  0  0  0  0
 35 50  1  0  0  0  0
 35 51  1  0  0  0  0
 36 38  1  0  0  0  0
 36 42  2  0  0  0  0
 37 39  1  0  0  0  0
 37 43  2  0  0  0  0
 38 88  1  0  0  0  0
 39 89  1  0  0  0  0
 40 44  2  0  0  0  0
 40 90  1  0  0  0  0
 41 45  2  0  0  0  0
 41 91  1  0  0  0  0
 42 44  1  0  0  0  0
 43 45  1  0  0  0  0
 44 52  1  0  0  0  0
 45 53  1  0  0  0  0
 46 92  1  0  0  0  0
 46 93  1  0  0  0  0
 46 94  1  0  0  0  0
 47 95  1  0  0  0  0
 47 96  1  0  0  0  0
 47 97  1  0  0  0  0
 48 98  1  0  0  0  0
 48 99  1  0  0  0  0
 48100  1  0  0  0  0
 49101  1  0  0  0  0
 49102  1  0  0  0  0
 49103  1  0  0  0  0
 50104  1  0  0  0  0
 50105  1  0  0  0  0
 50106  1  0  0  0  0
 51107  1  0  0  0  0
 51108  1  0  0  0  0
 51109  1  0  0  0  0
 52110  1  0  0  0  0
 52111  1  0  0  0  0
 52112  1  0  0  0  0
 53113  1  0  0  0  0
 53114  1  0  0  0  0
 53115  1  0  0  0  0
M  END
> <PUBCHEM_COMPOUND_CID>
11115306

> <PUBCHEM_COMPOUND_CANONICALIZED>
1

> <PUBCHEM_CACTVS_COMPLEXITY>
1090

> <PUBCHEM_CACTVS_HBOND_ACCEPTOR>
10

> <PUBCHEM_CACTVS_HBOND_DONOR>
2

> <PUBCHEM_CACTVS_ROTATABLE_BOND>
16

> <PUBCHEM_CACTVS_SUBSKEYS>
AAADcfB8PAAAAAAAAAAAAAAAAAAAAAAAAAA0aIEAAAAAAAABQAAAGgAACAAADgSwmAMyDoAABgCIAiDSCAACAAAgIAAAiAEECIgYJjKCERKicAAlwBEMmAeIyOCPoAACAAAIAABAAAQAABAAAAAAAAAAAA==

> <PUBCHEM_IUPAC_OPENEYE_NAME>
[2-[3-[2-[3-(3-tert-butyl-4-hydroxy-5-methyl-phenyl)propanoyloxy]-1,1-dimethyl-ethyl]-2,4,8,10-tetraoxaspiro[5.5]undecan-9-yl]-2-methyl-propyl] 3-(3-tert-butyl-4-hydroxy-5-methyl-phenyl)propanoate

> <PUBCHEM_IUPAC_CAS_NAME>
3-(3-tert-butyl-4-hydroxy-5-methylphenyl)propanoic acid [2-[3-[1-[3-(3-tert-butyl-4-hydroxy-5-methylphenyl)-1-oxopropoxy]-2-methylpropan-2-yl]-2,4,8,10-tetraoxaspiro[5.5]undecan-9-yl]-2-methylpropyl] ester

> <PUBCHEM_IUPAC_NAME_MARKUP>
[2-[3-[1-[3-(3-<I>tert</I>-butyl-4-hydroxy-5-methylphenyl)propanoyloxy]-2-methylpropan-2-yl]-2,4,8,10-tetraoxaspiro[5.5]undecan-9-yl]-2-methylpropyl] 3-(3-<I>tert</I>-butyl-4-hydroxy-5-methylphenyl)propanoate

> <PUBCHEM_IUPAC_NAME>
[2-[3-[1-[3-(3-tert-butyl-4-hydroxy-5-methylphenyl)propanoyloxy]-2-methylpropan-2-yl]-2,4,8,10-tetraoxaspiro[5.5]undecan-9-yl]-2-methylpropyl] 3-(3-tert-butyl-4-hydroxy-5-methylphenyl)propanoate

> <PUBCHEM_IUPAC_SYSTEMATIC_NAME>
[2-[3-[1-[3-(3-tert-butyl-5-methyl-4-oxidanyl-phenyl)propanoyloxy]-2-methyl-propan-2-yl]-2,4,8,10-tetraoxaspiro[5.5]undecan-9-yl]-2-methyl-propyl] 3-(3-tert-butyl-5-methyl-4-oxidanyl-phenyl)propanoate

> <PUBCHEM_IUPAC_TRADITIONAL_NAME>
3-(3-tert-butyl-4-hydroxy-5-methyl-phenyl)propionic acid [2-[3-[2-[3-(3-tert-butyl-4-hydroxy-5-methyl-phenyl)propanoyloxy]-1,1-dimethyl-ethyl]-2,4,8,10-tetraoxaspiro[5.5]undecan-9-yl]-2-methyl-propyl] ester

> <PUBCHEM_IUPAC_INCHI>
InChI=1S/C43H64O10/c1-27-17-29(19-31(35(27)46)39(3,4)5)13-15-33(44)48-21-41(9,10)37-50-23-43(24-51-37)25-52-38(53-26-43)42(11,12)22-49-34(45)16-14-30-18-28(2)36(47)32(20-30)40(6,7)8/h17-20,37-38,46-47H,13-16,21-26H2,1-12H3

> <PUBCHEM_IUPAC_INCHIKEY>
CGRTZESQZZGAAU-UHFFFAOYSA-N

> <PUBCHEM_XLOGP3_AA>
8.9

> <PUBCHEM_EXACT_MASS>
740.44994823

> <PUBCHEM_MOLECULAR_FORMULA>
C43H64O10

> <PUBCHEM_MOLECULAR_WEIGHT>
741.0

> <PUBCHEM_SMILES>
CC1=CC(=CC(=C1O)C(C)(C)C)CCC(=O)OCC(C)(C)C2OCC3(CO2)COC(OC3)C(C)(C)COC(=O)CCC4=CC(=C(C(=C4)C)O)C(C)(C)C

> <PUBCHEM_OPENEYE_CAN_SMILES>
CC1=CC(=CC(=C1O)C(C)(C)C)CCC(=O)OCC(C)(C)C2OCC3(CO2)COC(OC3)C(C)(C)COC(=O)CCC4=CC(=C(C(=C4)C)O)C(C)(C)C

> <PUBCHEM_OPENEYE_ISO_SMILES>
CC1=CC(=CC(=C1O)C(C)(C)C)CCC(=O)OCC(C)(C)C2OCC3(CO2)COC(OC3)C(C)(C)COC(=O)CCC4=CC(=C(C(=C4)C)O)C(C)(C)C

> <PUBCHEM_CACTVS_TPSA>
130

> <PUBCHEM_MONOISOTOPIC_WEIGHT>
740.44994823

> <PUBCHEM_TOTAL_CHARGE>
0

> <PUBCHEM_HEAVY_ATOM_COUNT>
53

> <PUBCHEM_ATOM_DEF_STEREO_COUNT>
0

> <PUBCHEM_ATOM_UDEF_STEREO_COUNT>
0

> <PUBCHEM_BOND_DEF_STEREO_COUNT>
0

> <PUBCHEM_BOND_UDEF_STEREO_COUNT>
0

> <PUBCHEM_ISOTOPIC_ATOM_COUNT>
0

> <PUBCHEM_COMPONENT_COUNT>
1

> <PUBCHEM_CACTVS_TAUTO_COUNT>
-1

> <PUBCHEM_COORDINATE_TYPE>
1
5
255

> <PUBCHEM_BONDANNOTATIONS>
32  38  8
32  40  8
33  39  8
33  41  8
36  38  8
36  42  8
37  39  8
37  43  8
40  44  8
41  45  8
42  44  8
43  45  8

$$$$
