112160
  -OEChem-04042512222D

 24 23  0     1  0  0  0  0  0999 V2000
    6.4640   -1.4330    0.0000 F   0  0  0  0  0  0  0  0  0  0  0  0
    6.3301    0.7990    0.0000 F   0  0  0  0  0  0  0  0  0  0  0  0
    7.3301   -0.9330    0.0000 F   0  0  0  0  0  0  0  0  0  0  0  0
    4.9640   -2.2990    0.0000 F   0  0  0  0  0  0  0  0  0  0  0  0
    4.5980   -0.9330    0.0000 F   0  0  0  0  0  0  0  0  0  0  0  0
    5.9641   -2.2991    0.0000 F   0  0  0  0  0  0  0  0  0  0  0  0
    5.0980    1.6650    0.0000 F   0  0  0  0  0  0  0  0  0  0  0  0
    4.0980   -0.0670    0.0000 F   0  0  0  0  0  0  0  0  0  0  0  0
    4.2320    2.1650    0.0000 F   0  0  0  0  0  0  0  0  0  0  0  0
    3.2320    0.4330    0.0000 F   0  0  0  0  0  0  0  0  0  0  0  0
    8.5621   -1.0670    0.0000 F   0  0  0  0  0  0  0  0  0  0  0  0
   10.2942   -0.0670    0.0000 F   0  0  0  0  0  0  0  0  0  0  0  0
    9.4282    1.4330    0.0000 F   0  0  0  0  0  0  0  0  0  0  0  0
    5.4640    0.2990    0.0000 O   0  0  0  0  0  0  0  0  0  0  0  0
    7.6961    0.4330    0.0000 O   0  0  0  0  0  0  0  0  0  0  0  0
    2.0000    2.2991    0.0000 N   0  0  0  0  0  0  0  0  0  0  0  0
    5.9640   -0.5670    0.0000 C   0  0  3  0  0  0  0  0  0  0  0  0
    6.8301   -0.0670    0.0000 C   0  0  0  0  0  0  0  0  0  0  0  0
    5.4640   -1.4330    0.0000 C   0  0  0  0  0  0  0  0  0  0  0  0
    4.5981    0.7991    0.0000 C   0  0  0  0  0  0  0  0  0  0  0  0
    3.7320    1.2991    0.0000 C   0  0  0  0  0  0  0  0  0  0  0  0
    8.5621   -0.0670    0.0000 C   0  0  0  0  0  0  0  0  0  0  0  0
    2.8660    1.7991    0.0000 C   0  0  0  0  0  0  0  0  0  0  0  0
    9.4282    0.4330    0.0000 C   0  0  0  0  0  0  0  0  0  0  0  0
  1 17  1  0  0  0  0
  2 18  1  0  0  0  0
  3 18  1  0  0  0  0
  4 19  1  0  0  0  0
  5 19  1  0  0  0  0
  6 19  1  0  0  0  0
  7 20  1  0  0  0  0
  8 20  1  0  0  0  0
  9 21  1  0  0  0  0
 10 21  1  0  0  0  0
 11 22  1  0  0  0  0
 12 24  1  0  0  0  0
 13 24  1  0  0  0  0
 14 17  1  0  0  0  0
 14 20  1  0  0  0  0
 15 18  1  0  0  0  0
 15 22  1  0  0  0  0
 16 23  3  0  0  0  0
 17 18  1  0  0  0  0
 17 19  1  0  0  0  0
 20 21  1  0  0  0  0
 21 23  1  0  0  0  0
 22 24  2  0  0  0  0
M  END
> <PUBCHEM_COMPOUND_CID>
112160

> <PUBCHEM_COMPOUND_CANONICALIZED>
1

> <PUBCHEM_CACTVS_COMPLEXITY>
554

> <PUBCHEM_CACTVS_HBOND_ACCEPTOR>
16

> <PUBCHEM_CACTVS_HBOND_DONOR>
0

> <PUBCHEM_CACTVS_ROTATABLE_BOND>
6

> <PUBCHEM_CACTVS_SUBSKEYS>
AAADcQByMcAAAAAAAAAAAAAAAAAAAAAAAAAAAAAAAAAAAAAAAAAADwAAAAAACAQBgBAAAAAABACQBAAAAAAACAAAAAAAAAAAAAABgAAAAAACAAAAAAACAAAAAAAAAAAAAAAAAAAAAAAAAAAAAAAAAAAAAA==

> <PUBCHEM_IUPAC_OPENEYE_NAME>
3-[1-[difluoro(1,2,2-trifluorovinyloxy)methyl]-1,2,2,2-tetrafluoro-ethoxy]-2,2,3,3-tetrafluoro-propanenitrile

> <PUBCHEM_IUPAC_CAS_NAME>
2,2,3,3-tetrafluoro-3-[1,1,1,2,3,3-hexafluoro-3-(1,2,2-trifluoroethenoxy)propan-2-yl]oxypropanenitrile

> <PUBCHEM_IUPAC_NAME_MARKUP>
2,2,3,3-tetrafluoro-3-[1,1,1,2,3,3-hexafluoro-3-(1,2,2-trifluoroethenoxy)propan-2-yl]oxypropanenitrile

> <PUBCHEM_IUPAC_NAME>
2,2,3,3-tetrafluoro-3-[1,1,1,2,3,3-hexafluoro-3-(1,2,2-trifluoroethenoxy)propan-2-yl]oxypropanenitrile

> <PUBCHEM_IUPAC_SYSTEMATIC_NAME>
2,2,3,3-tetrakis(fluoranyl)-3-[1,1,1,2,3,3-hexakis(fluoranyl)-3-[1,2,2-tris(fluoranyl)ethenoxy]propan-2-yl]oxy-propanenitrile

> <PUBCHEM_IUPAC_TRADITIONAL_NAME>
3-[1-[difluoro(1,2,2-trifluorovinyloxy)methyl]-1,2,2,2-tetrafluoro-ethoxy]-2,2,3,3-tetrafluoro-propionitrile

> <PUBCHEM_IUPAC_INCHI>
InChI=1S/C8F13NO2/c9-2(10)3(11)23-8(20,21)5(14,6(15,16)17)24-7(18,19)4(12,13)1-22

> <PUBCHEM_IUPAC_INCHIKEY>
LYIPDZSLYLDLCU-UHFFFAOYSA-N

> <PUBCHEM_XLOGP3_AA>
4.5

> <PUBCHEM_EXACT_MASS>
388.9721443

> <PUBCHEM_MOLECULAR_FORMULA>
C8F13NO2

> <PUBCHEM_MOLECULAR_WEIGHT>
389.07

> <PUBCHEM_SMILES>
C(#N)C(C(OC(C(OC(=C(F)F)F)(F)F)(C(F)(F)F)F)(F)F)(F)F

> <PUBCHEM_OPENEYE_CAN_SMILES>
C(#N)C(C(OC(C(OC(=C(F)F)F)(F)F)(C(F)(F)F)F)(F)F)(F)F

> <PUBCHEM_OPENEYE_ISO_SMILES>
C(#N)C(C(OC(C(OC(=C(F)F)F)(F)F)(C(F)(F)F)F)(F)F)(F)F

> <PUBCHEM_CACTVS_TPSA>
42.3

> <PUBCHEM_MONOISOTOPIC_WEIGHT>
388.9721443

> <PUBCHEM_TOTAL_CHARGE>
0

> <PUBCHEM_HEAVY_ATOM_COUNT>
24

> <PUBCHEM_ATOM_DEF_STEREO_COUNT>
0

> <PUBCHEM_ATOM_UDEF_STEREO_COUNT>
1

> <PUBCHEM_BOND_DEF_STEREO_COUNT>
0

> <PUBCHEM_BOND_UDEF_STEREO_COUNT>
0

> <PUBCHEM_ISOTOPIC_ATOM_COUNT>
0

> <PUBCHEM_COMPONENT_COUNT>
1

> <PUBCHEM_CACTVS_TAUTO_COUNT>
-1

> <PUBCHEM_COORDINATE_TYPE>
1
5
255

> <PUBCHEM_BONDANNOTATIONS>
17  1  3

$$$$
