112130
  -OEChem-04042512282D

159165  0     1  0  0  0  0  0999 V2000
    8.2452    0.3594    0.0000 O   0  0  0  0  0  0  0  0  0  0  0  0
   11.2452   -1.3727    0.0000 O   0  0  0  0  0  0  0  0  0  0  0  0
    8.2452   -3.1047    0.0000 O   0  0  0  0  0  0  0  0  0  0  0  0
    7.1472    3.7254    0.0000 O   0  0  0  0  0  0  0  0  0  0  0  0
    5.8792   -5.7387    0.0000 O   0  0  0  0  0  0  0  0  0  0  0  0
   13.8433   -0.6047    0.0000 O   0  0  0  0  0  0  0  0  0  0  0  0
    6.3304    5.0358    0.0000 O   0  0  0  0  0  0  0  0  0  0  0  0
    3.4700   -4.1865    0.0000 O   0  0  0  0  0  0  0  0  0  0  0  0
   14.6601    0.7057    0.0000 O   0  0  0  0  0  0  0  0  0  0  0  0
    9.7452   -0.5066    0.0000 N   0  0  0  0  0  0  0  0  0  0  0  0
    8.2452   -1.3727    0.0000 N   0  0  0  0  0  0  0  0  0  0  0  0
    9.7452   -2.2387    0.0000 N   0  0  0  0  0  0  0  0  0  0  0  0
    8.8792    3.7254    0.0000 N   0  0  0  0  0  0  0  0  0  0  0  0
    5.0132   -4.2387    0.0000 N   0  0  0  0  0  0  0  0  0  0  0  0
   12.1113   -0.6047    0.0000 N   0  0  0  0  0  0  0  0  0  0  0  0
    8.0132    5.2254    0.0000 N   0  0  0  0  0  0  0  0  0  0  0  0
    4.1472   -5.7387    0.0000 N   0  0  0  0  0  0  0  0  0  0  0  0
   12.9773    0.8953    0.0000 N   0  0  0  0  0  0  0  0  0  0  0  0
    9.7452    1.2254    0.0000 C   0  0  3  0  0  0  0  0  0  0  0  0
    6.7452   -2.2387    0.0000 C   0  0  3  0  0  0  0  0  0  0  0  0
   11.2452   -3.1047    0.0000 C   0  0  3  0  0  0  0  0  0  0  0  0
    8.0132    1.2254    0.0000 C   0  0  0  0  0  0  0  0  0  0  0  0
    7.6112   -3.7387    0.0000 C   0  0  0  0  0  0  0  0  0  0  0  0
   12.9773   -3.1047    0.0000 C   0  0  0  0  0  0  0  0  0  0  0  0
    8.8792    0.7254    0.0000 C   0  0  0  0  0  0  0  0  0  0  0  0
    7.6112   -2.7387    0.0000 C   0  0  0  0  0  0  0  0  0  0  0  0
   12.1113   -3.6047    0.0000 C   0  0  0  0  0  0  0  0  0  0  0  0
    9.7452    2.2254    0.0000 C   0  0  0  0  0  0  0  0  0  0  0  0
    5.8792   -2.7387    0.0000 C   0  0  0  0  0  0  0  0  0  0  0  0
   11.2452   -2.1047    0.0000 C   0  0  0  0  0  0  0  0  0  0  0  0
    8.8792    2.7254    0.0000 C   0  0  3  0  0  0  0  0  0  0  0  0
    5.8792   -3.7387    0.0000 C   0  0  3  0  0  0  0  0  0  0  0  0
   12.1113   -1.6047    0.0000 C   0  0  3  0  0  0  0  0  0  0  0  0
    8.0132    2.2254    0.0000 C   0  0  0  0  0  0  0  0  0  0  0  0
    6.7452   -4.2387    0.0000 C   0  0  0  0  0  0  0  0  0  0  0  0
   12.9773   -2.1047    0.0000 C   0  0  0  0  0  0  0  0  0  0  0  0
   10.2452    0.3594    0.0000 C   0  0  0  0  0  0  0  0  0  0  0  0
    7.2452   -1.3727    0.0000 C   0  0  0  0  0  0  0  0  0  0  0  0
   10.2452   -3.1047    0.0000 C   0  0  0  0  0  0  0  0  0  0  0  0
   10.7452    1.2254    0.0000 C   0  0  0  0  0  0  0  0  0  0  0  0
    6.2452   -1.3727    0.0000 C   0  0  0  0  0  0  0  0  0  0  0  0
   10.7452   -3.9707    0.0000 C   0  0  0  0  0  0  0  0  0  0  0  0
    7.5132    0.3594    0.0000 C   0  0  0  0  0  0  0  0  0  0  0  0
    7.0132    1.2254    0.0000 C   0  0  0  0  0  0  0  0  0  0  0  0
    8.1112   -4.6047    0.0000 C   0  0  0  0  0  0  0  0  0  0  0  0
    8.6112   -3.7387    0.0000 C   0  0  0  0  0  0  0  0  0  0  0  0
   13.9773   -3.1047    0.0000 C   0  0  0  0  0  0  0  0  0  0  0  0
   13.4773   -3.9707    0.0000 C   0  0  0  0  0  0  0  0  0  0  0  0
    8.7452   -0.5066    0.0000 C   0  0  0  0  0  0  0  0  0  0  0  0
   10.2452   -1.3727    0.0000 C   0  0  0  0  0  0  0  0  0  0  0  0
    8.7452   -2.2387    0.0000 C   0  0  0  0  0  0  0  0  0  0  0  0
    8.0132    4.2254    0.0000 C   0  0  0  0  0  0  0  0  0  0  0  0
    5.0132   -5.2387    0.0000 C   0  0  0  0  0  0  0  0  0  0  0  0
   12.9773   -0.1047    0.0000 C   0  0  0  0  0  0  0  0  0  0  0  0
    8.9142    5.6593    0.0000 C   0  0  0  0  0  0  0  0  0  0  0  0
    4.2219   -6.7359    0.0000 C   0  0  0  0  0  0  0  0  0  0  0  0
   12.0763    1.3292    0.0000 C   0  0  0  0  0  0  0  0  0  0  0  0
    7.1122    5.6593    0.0000 C   0  0  0  0  0  0  0  0  0  0  0  0
    3.3209   -5.1754    0.0000 C   0  0  0  0  0  0  0  0  0  0  0  0
   13.8782    1.3292    0.0000 C   0  0  0  0  0  0  0  0  0  0  0  0
    9.1367    6.6342    0.0000 C   0  0  0  0  0  0  0  0  0  0  0  0
    3.4888   -7.4161    0.0000 C   0  0  0  0  0  0  0  0  0  0  0  0
   11.8538    2.3041    0.0000 C   0  0  0  0  0  0  0  0  0  0  0  0
    6.8897    6.6342    0.0000 C   0  0  0  0  0  0  0  0  0  0  0  0
    2.3653   -5.4701    0.0000 C   0  0  0  0  0  0  0  0  0  0  0  0
   14.1008    2.3041    0.0000 C   0  0  0  0  0  0  0  0  0  0  0  0
    8.5132    7.4161    0.0000 C   0  0  0  0  0  0  0  0  0  0  0  0
    2.5000   -7.2670    0.0000 C   0  0  0  0  0  0  0  0  0  0  0  0
   12.4773    3.0859    0.0000 C   0  0  0  0  0  0  0  0  0  0  0  0
    7.5132    7.4161    0.0000 C   0  0  0  0  0  0  0  0  0  0  0  0
    2.0000   -6.4010    0.0000 C   0  0  0  0  0  0  0  0  0  0  0  0
   13.4773    3.0859    0.0000 C   0  0  0  0  0  0  0  0  0  0  0  0
    8.4807    0.2505    0.0000 H   0  0  0  0  0  0  0  0  0  0  0  0
    9.2777    0.2505    0.0000 H   0  0  0  0  0  0  0  0  0  0  0  0
    8.2218   -2.8464    0.0000 H   0  0  0  0  0  0  0  0  0  0  0  0
    7.8233   -2.1561    0.0000 H   0  0  0  0  0  0  0  0  0  0  0  0
   11.7127   -4.0797    0.0000 H   0  0  0  0  0  0  0  0  0  0  0  0
   12.5098   -4.0797    0.0000 H   0  0  0  0  0  0  0  0  0  0  0  0
   10.3558    2.1178    0.0000 H   0  0  0  0  0  0  0  0  0  0  0  0
    9.9573    2.8080    0.0000 H   0  0  0  0  0  0  0  0  0  0  0  0
    5.6672   -2.1561    0.0000 H   0  0  0  0  0  0  0  0  0  0  0  0
    5.2686   -2.8464    0.0000 H   0  0  0  0  0  0  0  0  0  0  0  0
   11.0332   -1.5221    0.0000 H   0  0  0  0  0  0  0  0  0  0  0  0
   10.6346   -2.2124    0.0000 H   0  0  0  0  0  0  0  0  0  0  0  0
    9.4161    3.0354    0.0000 H   0  0  0  0  0  0  0  0  0  0  0  0
    5.8792   -4.3587    0.0000 H   0  0  0  0  0  0  0  0  0  0  0  0
   12.6482   -1.2947    0.0000 H   0  0  0  0  0  0  0  0  0  0  0  0
    7.8011    2.8080    0.0000 H   0  0  0  0  0  0  0  0  0  0  0  0
    7.4026    2.1178    0.0000 H   0  0  0  0  0  0  0  0  0  0  0  0
    6.3467   -4.7136    0.0000 H   0  0  0  0  0  0  0  0  0  0  0  0
    7.1438   -4.7136    0.0000 H   0  0  0  0  0  0  0  0  0  0  0  0
   13.5879   -2.2124    0.0000 H   0  0  0  0  0  0  0  0  0  0  0  0
   13.1893   -1.5221    0.0000 H   0  0  0  0  0  0  0  0  0  0  0  0
   10.7202   -0.0391    0.0000 H   0  0  0  0  0  0  0  0  0  0  0  0
   10.7202    0.7579    0.0000 H   0  0  0  0  0  0  0  0  0  0  0  0
    7.3529   -0.7621    0.0000 H   0  0  0  0  0  0  0  0  0  0  0  0
    6.6626   -1.1606    0.0000 H   0  0  0  0  0  0  0  0  0  0  0  0
    9.6626   -3.3168    0.0000 H   0  0  0  0  0  0  0  0  0  0  0  0
   10.3529   -3.7153    0.0000 H   0  0  0  0  0  0  0  0  0  0  0  0
   10.7452    0.6054    0.0000 H   0  0  0  0  0  0  0  0  0  0  0  0
   11.3652    1.2254    0.0000 H   0  0  0  0  0  0  0  0  0  0  0  0
   10.7452    1.8454    0.0000 H   0  0  0  0  0  0  0  0  0  0  0  0
    6.7822   -1.0627    0.0000 H   0  0  0  0  0  0  0  0  0  0  0  0
    5.9352   -0.8357    0.0000 H   0  0  0  0  0  0  0  0  0  0  0  0
    5.7083   -1.6827    0.0000 H   0  0  0  0  0  0  0  0  0  0  0  0
   10.2083   -3.6607    0.0000 H   0  0  0  0  0  0  0  0  0  0  0  0
   10.4352   -4.5077    0.0000 H   0  0  0  0  0  0  0  0  0  0  0  0
   11.2822   -4.2807    0.0000 H   0  0  0  0  0  0  0  0  0  0  0  0
    6.9762    0.6694    0.0000 H   0  0  0  0  0  0  0  0  0  0  0  0
    7.2032   -0.1775    0.0000 H   0  0  0  0  0  0  0  0  0  0  0  0
    8.0501    0.0494    0.0000 H   0  0  0  0  0  0  0  0  0  0  0  0
    7.0132    1.8454    0.0000 H   0  0  0  0  0  0  0  0  0  0  0  0
    6.3932    1.2254    0.0000 H   0  0  0  0  0  0  0  0  0  0  0  0
    7.0132    0.6054    0.0000 H   0  0  0  0  0  0  0  0  0  0  0  0
    7.5743   -4.9147    0.0000 H   0  0  0  0  0  0  0  0  0  0  0  0
    8.4213   -5.1416    0.0000 H   0  0  0  0  0  0  0  0  0  0  0  0
    8.6482   -4.2947    0.0000 H   0  0  0  0  0  0  0  0  0  0  0  0
    8.6112   -4.3587    0.0000 H   0  0  0  0  0  0  0  0  0  0  0  0
    9.2312   -3.7387    0.0000 H   0  0  0  0  0  0  0  0  0  0  0  0
    8.6112   -3.1187    0.0000 H   0  0  0  0  0  0  0  0  0  0  0  0
   13.9773   -3.7247    0.0000 H   0  0  0  0  0  0  0  0  0  0  0  0
   14.5973   -3.1047    0.0000 H   0  0  0  0  0  0  0  0  0  0  0  0
   13.9773   -2.4847    0.0000 H   0  0  0  0  0  0  0  0  0  0  0  0
   12.9403   -4.2807    0.0000 H   0  0  0  0  0  0  0  0  0  0  0  0
   13.7873   -4.5077    0.0000 H   0  0  0  0  0  0  0  0  0  0  0  0
   14.0142   -3.6607    0.0000 H   0  0  0  0  0  0  0  0  0  0  0  0
    9.4161    4.0354    0.0000 H   0  0  0  0  0  0  0  0  0  0  0  0
    4.4762   -3.9287    0.0000 H   0  0  0  0  0  0  0  0  0  0  0  0
   11.5743   -0.2947    0.0000 H   0  0  0  0  0  0  0  0  0  0  0  0
    9.0521    5.0548    0.0000 H   0  0  0  0  0  0  0  0  0  0  0  0
    9.5342    5.6593    0.0000 H   0  0  0  0  0  0  0  0  0  0  0  0
    4.5319   -7.2728    0.0000 H   0  0  0  0  0  0  0  0  0  0  0  0
    4.8143   -6.5531    0.0000 H   0  0  0  0  0  0  0  0  0  0  0  0
   11.4563    1.3292    0.0000 H   0  0  0  0  0  0  0  0  0  0  0  0
   11.9383    0.7247    0.0000 H   0  0  0  0  0  0  0  0  0  0  0  0
    9.6953    6.3652    0.0000 H   0  0  0  0  0  0  0  0  0  0  0  0
    9.5232    7.1190    0.0000 H   0  0  0  0  0  0  0  0  0  0  0  0
    3.2623   -7.9932    0.0000 H   0  0  0  0  0  0  0  0  0  0  0  0
    4.0011   -7.7653    0.0000 H   0  0  0  0  0  0  0  0  0  0  0  0
   11.4672    2.7888    0.0000 H   0  0  0  0  0  0  0  0  0  0  0  0
   11.2952    2.0351    0.0000 H   0  0  0  0  0  0  0  0  0  0  0  0
    6.5031    7.1190    0.0000 H   0  0  0  0  0  0  0  0  0  0  0  0
    6.3311    6.3652    0.0000 H   0  0  0  0  0  0  0  0  0  0  0  0
    2.3190   -4.8518    0.0000 H   0  0  0  0  0  0  0  0  0  0  0  0
    1.7523   -5.3777    0.0000 H   0  0  0  0  0  0  0  0  0  0  0  0
   14.6594    2.0351    0.0000 H   0  0  0  0  0  0  0  0  0  0  0  0
   14.4873    2.7888    0.0000 H   0  0  0  0  0  0  0  0  0  0  0  0
    9.0718    7.6851    0.0000 H   0  0  0  0  0  0  0  0  0  0  0  0
    8.3752    8.0205    0.0000 H   0  0  0  0  0  0  0  0  0  0  0  0
    1.9075   -7.4498    0.0000 H   0  0  0  0  0  0  0  0  0  0  0  0
    2.5463   -7.8853    0.0000 H   0  0  0  0  0  0  0  0  0  0  0  0
   12.6152    3.6904    0.0000 H   0  0  0  0  0  0  0  0  0  0  0  0
   11.9187    3.3549    0.0000 H   0  0  0  0  0  0  0  0  0  0  0  0
    7.6511    8.0205    0.0000 H   0  0  0  0  0  0  0  0  0  0  0  0
    6.9546    7.6851    0.0000 H   0  0  0  0  0  0  0  0  0  0  0  0
    1.4877   -6.0517    0.0000 H   0  0  0  0  0  0  0  0  0  0  0  0
    1.5455   -6.8227    0.0000 H   0  0  0  0  0  0  0  0  0  0  0  0
   14.0359    3.3549    0.0000 H   0  0  0  0  0  0  0  0  0  0  0  0
   13.3393    3.6904    0.0000 H   0  0  0  0  0  0  0  0  0  0  0  0
  1 49  2  0  0  0  0
  2 50  2  0  0  0  0
  3 51  2  0  0  0  0
  4 52  2  0  0  0  0
  5 53  2  0  0  0  0
  6 54  2  0  0  0  0
  7 58  2  0  0  0  0
  8 59  2  0  0  0  0
  9 60  2  0  0  0  0
 10 37  1  0  0  0  0
 10 49  1  0  0  0  0
 10 50  1  0  0  0  0
 11 38  1  0  0  0  0
 11 49  1  0  0  0  0
 11 51  1  0  0  0  0
 12 39  1  0  0  0  0
 12 50  1  0  0  0  0
 12 51  1  0  0  0  0
 13 31  1  0  0  0  0
 13 52  1  0  0  0  0
 13127  1  0  0  0  0
 14 32  1  0  0  0  0
 14 53  1  0  0  0  0
 14128  1  0  0  0  0
 15 33  1  0  0  0  0
 15 54  1  0  0  0  0
 15129  1  0  0  0  0
 16 52  1  0  0  0  0
 16 55  1  0  0  0  0
 16 58  1  0  0  0  0
 17 53  1  0  0  0  0
 17 56  1  0  0  0  0
 17 59  1  0  0  0  0
 18 54  1  0  0  0  0
 18 57  1  0  0  0  0
 18 60  1  0  0  0  0
 19 25  1  0  0  0  0
 19 28  1  0  0  0  0
 19 37  1  0  0  0  0
 19 40  1  0  0  0  0
 20 26  1  0  0  0  0
 20 29  1  0  0  0  0
 20 38  1  0  0  0  0
 20 41  1  0  0  0  0
 21 27  1  0  0  0  0
 21 30  1  0  0  0  0
 21 39  1  0  0  0  0
 21 42  1  0  0  0  0
 22 25  1  0  0  0  0
 22 34  1  0  0  0  0
 22 43  1  0  0  0  0
 22 44  1  0  0  0  0
 23 26  1  0  0  0  0
 23 35  1  0  0  0  0
 23 45  1  0  0  0  0
 23 46  1  0  0  0  0
 24 27  1  0  0  0  0
 24 36  1  0  0  0  0
 24 47  1  0  0  0  0
 24 48  1  0  0  0  0
 25 73  1  0  0  0  0
 25 74  1  0  0  0  0
 26 75  1  0  0  0  0
 26 76  1  0  0  0  0
 27 77  1  0  0  0  0
 27 78  1  0  0  0  0
 28 31  1  0  0  0  0
 28 79  1  0  0  0  0
 28 80  1  0  0  0  0
 29 32  1  0  0  0  0
 29 81  1  0  0  0  0
 29 82  1  0  0  0  0
 30 33  1  0  0  0  0
 30 83  1  0  0  0  0
 30 84  1  0  0  0  0
 31 34  1  0  0  0  0
 31 85  1  0  0  0  0
 32 35  1  0  0  0  0
 32 86  1  0  0  0  0
 33 36  1  0  0  0  0
 33 87  1  0  0  0  0
 34 88  1  0  0  0  0
 34 89  1  0  0  0  0
 35 90  1  0  0  0  0
 35 91  1  0  0  0  0
 36 92  1  0  0  0  0
 36 93  1  0  0  0  0
 37 94  1  0  0  0  0
 37 95  1  0  0  0  0
 38 96  1  0  0  0  0
 38 97  1  0  0  0  0
 39 98  1  0  0  0  0
 39 99  1  0  0  0  0
 40100  1  0  0  0  0
 40101  1  0  0  0  0
 40102  1  0  0  0  0
 41103  1  0  0  0  0
 41104  1  0  0  0  0
 41105  1  0  0  0  0
 42106  1  0  0  0  0
 42107  1  0  0  0  0
 42108  1  0  0  0  0
 43109  1  0  0  0  0
 43110  1  0  0  0  0
 43111  1  0  0  0  0
 44112  1  0  0  0  0
 44113  1  0  0  0  0
 44114  1  0  0  0  0
 45115  1  0  0  0  0
 45116  1  0  0  0  0
 45117  1  0  0  0  0
 46118  1  0  0  0  0
 46119  1  0  0  0  0
 46120  1  0  0  0  0
 47121  1  0  0  0  0
 47122  1  0  0  0  0
 47123  1  0  0  0  0
 48124  1  0  0  0  0
 48125  1  0  0  0  0
 48126  1  0  0  0  0
 55 61  1  0  0  0  0
 55130  1  0  0  0  0
 55131  1  0  0  0  0
 56 62  1  0  0  0  0
 56132  1  0  0  0  0
 56133  1  0  0  0  0
 57 63  1  0  0  0  0
 57134  1  0  0  0  0
 57135  1  0  0  0  0
 58 64  1  0  0  0  0
 59 65  1  0  0  0  0
 60 66  1  0  0  0  0
 61 67  1  0  0  0  0
 61136  1  0  0  0  0
 61137  1  0  0  0  0
 62 68  1  0  0  0  0
 62138  1  0  0  0  0
 62139  1  0  0  0  0
 63 69  1  0  0  0  0
 63140  1  0  0  0  0
 63141  1  0  0  0  0
 64 70  1  0  0  0  0
 64142  1  0  0  0  0
 64143  1  0  0  0  0
 65 71  1  0  0  0  0
 65144  1  0  0  0  0
 65145  1  0  0  0  0
 66 72  1  0  0  0  0
 66146  1  0  0  0  0
 66147  1  0  0  0  0
 67 70  1  0  0  0  0
 67148  1  0  0  0  0
 67149  1  0  0  0  0
 68 71  1  0  0  0  0
 68150  1  0  0  0  0
 68151  1  0  0  0  0
 69 72  1  0  0  0  0
 69152  1  0  0  0  0
 69153  1  0  0  0  0
 70154  1  0  0  0  0
 70155  1  0  0  0  0
 71156  1  0  0  0  0
 71157  1  0  0  0  0
 72158  1  0  0  0  0
 72159  1  0  0  0  0
M  END
> <PUBCHEM_COMPOUND_CID>
112130

> <PUBCHEM_COMPOUND_CANONICALIZED>
1

> <PUBCHEM_CACTVS_COMPLEXITY>
1890

> <PUBCHEM_CACTVS_HBOND_ACCEPTOR>
9

> <PUBCHEM_CACTVS_HBOND_DONOR>
3

> <PUBCHEM_CACTVS_ROTATABLE_BOND>
9

> <PUBCHEM_CACTVS_SUBSKEYS>
AAADcfB//AAAAAAAAAAAAAAAAAAAAAAAAAA8YMEABYsAAAAAAAAAHgAQAAAADijBgAQDAAPAAAAIAAEQEAAAAAAAAAAAAIEIAACAABIAgAAEAAAIFyKAAAEYiEAPAAAAAAAAAAAAAASAAAAAAAAAAAAAAA==

> <PUBCHEM_IUPAC_OPENEYE_NAME>
2-oxo-N-[3,3,5-trimethyl-5-[[2,4,6-trioxo-3,5-bis[[1,3,3-trimethyl-5-[(2-oxoazepane-1-carbonyl)amino]cyclohexyl]methyl]-1,3,5-triazinan-1-yl]methyl]cyclohexyl]azepane-1-carboxamide

> <PUBCHEM_IUPAC_CAS_NAME>
2-oxo-N-[3,3,5-trimethyl-5-[[2,4,6-trioxo-3,5-bis[[1,3,3-trimethyl-5-[[oxo-(2-oxo-1-azepanyl)methyl]amino]cyclohexyl]methyl]-1,3,5-triazinan-1-yl]methyl]cyclohexyl]-1-azepanecarboxamide

> <PUBCHEM_IUPAC_NAME_MARKUP>
2-oxo-<I>N</I>-[3,3,5-trimethyl-5-[[2,4,6-trioxo-3,5-bis[[1,3,3-trimethyl-5-[(2-oxoazepane-1-carbonyl)amino]cyclohexyl]methyl]-1,3,5-triazinan-1-yl]methyl]cyclohexyl]azepane-1-carboxamide

> <PUBCHEM_IUPAC_NAME>
2-oxo-N-[3,3,5-trimethyl-5-[[2,4,6-trioxo-3,5-bis[[1,3,3-trimethyl-5-[(2-oxoazepane-1-carbonyl)amino]cyclohexyl]methyl]-1,3,5-triazinan-1-yl]methyl]cyclohexyl]azepane-1-carboxamide

> <PUBCHEM_IUPAC_SYSTEMATIC_NAME>
2-oxidanylidene-N-[3,3,5-trimethyl-5-[[2,4,6-tris(oxidanylidene)-3,5-bis[[1,3,3-trimethyl-5-[(2-oxidanylideneazepan-1-yl)carbonylamino]cyclohexyl]methyl]-1,3,5-triazinan-1-yl]methyl]cyclohexyl]azepane-1-carboxamide

> <PUBCHEM_IUPAC_TRADITIONAL_NAME>
2-keto-N-[3,3,5-trimethyl-5-[[2,4,6-triketo-3,5-bis[[5-[(2-ketoazepane-1-carbonyl)amino]-1,3,3-trimethyl-cyclohexyl]methyl]-1,3,5-triazinan-1-yl]methyl]cyclohexyl]azepane-1-carboxamide

> <PUBCHEM_IUPAC_INCHI>
InChI=1S/C54H87N9O9/c1-49(2)25-37(55-43(67)58-22-16-10-13-19-40(58)64)28-52(7,31-49)34-61-46(70)62(35-53(8)29-38(26-50(3,4)32-53)56-44(68)59-23-17-11-14-20-41(59)65)48(72)63(47(61)71)36-54(9)30-39(27-51(5,6)33-54)57-45(69)60-24-18-12-15-21-42(60)66/h37-39H,10-36H2,1-9H3,(H,55,67)(H,56,68)(H,57,69)

> <PUBCHEM_IUPAC_INCHIKEY>
XAUGVXXNNOTSRJ-UHFFFAOYSA-N

> <PUBCHEM_XLOGP3_AA>
7.3

> <PUBCHEM_EXACT_MASS>
1005.66267539

> <PUBCHEM_MOLECULAR_FORMULA>
C54H87N9O9

> <PUBCHEM_MOLECULAR_WEIGHT>
1006.3

> <PUBCHEM_SMILES>
CC1(CC(CC(C1)(C)CN2C(=O)N(C(=O)N(C2=O)CC3(CC(CC(C3)(C)C)NC(=O)N4CCCCCC4=O)C)CC5(CC(CC(C5)(C)C)NC(=O)N6CCCCCC6=O)C)NC(=O)N7CCCCCC7=O)C

> <PUBCHEM_OPENEYE_CAN_SMILES>
CC1(CC(CC(C1)(C)CN2C(=O)N(C(=O)N(C2=O)CC3(CC(CC(C3)(C)C)NC(=O)N4CCCCCC4=O)C)CC5(CC(CC(C5)(C)C)NC(=O)N6CCCCCC6=O)C)NC(=O)N7CCCCCC7=O)C

> <PUBCHEM_OPENEYE_ISO_SMILES>
CC1(CC(CC(C1)(C)CN2C(=O)N(C(=O)N(C2=O)CC3(CC(CC(C3)(C)C)NC(=O)N4CCCCCC4=O)C)CC5(CC(CC(C5)(C)C)NC(=O)N6CCCCCC6=O)C)NC(=O)N7CCCCCC7=O)C

> <PUBCHEM_CACTVS_TPSA>
209

> <PUBCHEM_MONOISOTOPIC_WEIGHT>
1005.66267539

> <PUBCHEM_TOTAL_CHARGE>
0

> <PUBCHEM_HEAVY_ATOM_COUNT>
72

> <PUBCHEM_ATOM_DEF_STEREO_COUNT>
0

> <PUBCHEM_ATOM_UDEF_STEREO_COUNT>
6

> <PUBCHEM_BOND_DEF_STEREO_COUNT>
0

> <PUBCHEM_BOND_UDEF_STEREO_COUNT>
0

> <PUBCHEM_ISOTOPIC_ATOM_COUNT>
0

> <PUBCHEM_COMPONENT_COUNT>
1

> <PUBCHEM_CACTVS_TAUTO_COUNT>
-1

> <PUBCHEM_COORDINATE_TYPE>
1
5
255

> <PUBCHEM_BONDANNOTATIONS>
10  49  8
10  50  8
11  49  8
11  51  8
12  50  8
12  51  8
31  13  3
32  14  3
33  15  3
19  40  3
20  41  3
21  42  3

$$$$
