11288106
  -OEChem-04042505332D

 34 35  0     1  0  0  0  0  0999 V2000
    2.8660    0.5121    0.0000 O   0  0  0  0  0  0  0  0  0  0  0  0
    3.7320    2.0121    0.0000 O   0  0  0  0  0  0  0  0  0  0  0  0
    9.8622   -0.5154    0.0000 O   0  0  0  0  0  0  0  0  0  0  0  0
    8.9904   -2.0121    0.0000 O   0  0  0  0  0  0  0  0  0  0  0  0
    4.5981    0.5121    0.0000 C   0  0  3  0  0  0  0  0  0  0  0  0
    4.5981   -0.4879    0.0000 C   0  0  0  0  0  0  0  0  0  0  0  0
    5.4641    1.0121    0.0000 C   0  0  0  0  0  0  0  0  0  0  0  0
    5.4641   -0.9879    0.0000 C   0  0  0  0  0  0  0  0  0  0  0  0
    6.3301    0.5121    0.0000 C   0  0  0  0  0  0  0  0  0  0  0  0
    6.3301   -0.4879    0.0000 C   0  0  0  0  0  0  0  0  0  0  0  0
    3.7320    1.0121    0.0000 C   0  0  0  0  0  0  0  0  0  0  0  0
    7.2241   -1.0226    0.0000 C   0  0  0  0  0  0  0  0  0  0  0  0
    7.2241    1.0467    0.0000 C   0  0  0  0  0  0  0  0  0  0  0  0
    8.1301   -0.5087    0.0000 C   0  0  0  0  0  0  0  0  0  0  0  0
    8.1301    0.5329    0.0000 C   0  0  0  0  0  0  0  0  0  0  0  0
    8.9942   -1.0121    0.0000 C   0  0  0  0  0  0  0  0  0  0  0  0
    2.0000    1.0121    0.0000 C   0  0  0  0  0  0  0  0  0  0  0  0
   10.7263   -1.0188    0.0000 C   0  0  0  0  0  0  0  0  0  0  0  0
    4.5981    1.1321    0.0000 H   0  0  0  0  0  0  0  0  0  0  0  0
    3.9875   -0.3803    0.0000 H   0  0  0  0  0  0  0  0  0  0  0  0
    4.3860   -1.0705    0.0000 H   0  0  0  0  0  0  0  0  0  0  0  0
    5.8626    1.4870    0.0000 H   0  0  0  0  0  0  0  0  0  0  0  0
    5.0656    1.4870    0.0000 H   0  0  0  0  0  0  0  0  0  0  0  0
    5.0656   -1.4629    0.0000 H   0  0  0  0  0  0  0  0  0  0  0  0
    5.8626   -1.4629    0.0000 H   0  0  0  0  0  0  0  0  0  0  0  0
    7.2169   -1.6426    0.0000 H   0  0  0  0  0  0  0  0  0  0  0  0
    7.2169    1.6667    0.0000 H   0  0  0  0  0  0  0  0  0  0  0  0
    8.6659    0.8450    0.0000 H   0  0  0  0  0  0  0  0  0  0  0  0
    2.3100    1.5490    0.0000 H   0  0  0  0  0  0  0  0  0  0  0  0
    1.4631    1.3221    0.0000 H   0  0  0  0  0  0  0  0  0  0  0  0
    1.6900    0.4751    0.0000 H   0  0  0  0  0  0  0  0  0  0  0  0
   10.4142   -1.5545    0.0000 H   0  0  0  0  0  0  0  0  0  0  0  0
   11.2620   -1.3308    0.0000 H   0  0  0  0  0  0  0  0  0  0  0  0
   11.0383   -0.4830    0.0000 H   0  0  0  0  0  0  0  0  0  0  0  0
  1 11  1  0  0  0  0
  1 17  1  0  0  0  0
  2 11  2  0  0  0  0
  3 16  1  0  0  0  0
  3 18  1  0  0  0  0
  4 16  2  0  0  0  0
  5  6  1  0  0  0  0
  5  7  1  0  0  0  0
  5 11  1  0  0  0  0
  5 19  1  0  0  0  0
  6  8  1  0  0  0  0
  6 20  1  0  0  0  0
  6 21  1  0  0  0  0
  7  9  1  0  0  0  0
  7 22  1  0  0  0  0
  7 23  1  0  0  0  0
  8 10  1  0  0  0  0
  8 24  1  0  0  0  0
  8 25  1  0  0  0  0
  9 10  2  0  0  0  0
  9 13  1  0  0  0  0
 10 12  1  0  0  0  0
 12 14  2  0  0  0  0
 12 26  1  0  0  0  0
 13 15  2  0  0  0  0
 13 27  1  0  0  0  0
 14 15  1  0  0  0  0
 14 16  1  0  0  0  0
 15 28  1  0  0  0  0
 17 29  1  0  0  0  0
 17 30  1  0  0  0  0
 17 31  1  0  0  0  0
 18 32  1  0  0  0  0
 18 33  1  0  0  0  0
 18 34  1  0  0  0  0
M  END
> <PUBCHEM_COMPOUND_CID>
11288106

> <PUBCHEM_COMPOUND_CANONICALIZED>
1

> <PUBCHEM_CACTVS_COMPLEXITY>
326

> <PUBCHEM_CACTVS_HBOND_ACCEPTOR>
4

> <PUBCHEM_CACTVS_HBOND_DONOR>
0

> <PUBCHEM_CACTVS_ROTATABLE_BOND>
4

> <PUBCHEM_CACTVS_SUBSKEYS>
AAADceBwOAAAAAAAAAAAAAAAAAAAAAAAAAAwYAAAAAAAAADBAAAAGgAAAAAADQCAmAIyCIAABACIAiDSCAACAAAkAAAIiAEACMgIJjKANRiAMQAkwAEIqYeIyPCOwAACAAAQAACAAAQAACAAAAAAAAAAAA==

> <PUBCHEM_IUPAC_OPENEYE_NAME>
dimethyl tetralin-2,6-dicarboxylate

> <PUBCHEM_IUPAC_CAS_NAME>
1,2,3,4-tetrahydronaphthalene-2,6-dicarboxylic acid dimethyl ester

> <PUBCHEM_IUPAC_NAME_MARKUP>
dimethyl 1,2,3,4-tetrahydronaphthalene-2,6-dicarboxylate

> <PUBCHEM_IUPAC_NAME>
dimethyl 1,2,3,4-tetrahydronaphthalene-2,6-dicarboxylate

> <PUBCHEM_IUPAC_SYSTEMATIC_NAME>
dimethyl 1,2,3,4-tetrahydronaphthalene-2,6-dicarboxylate

> <PUBCHEM_IUPAC_TRADITIONAL_NAME>
tetralin-2,6-dicarboxylic acid dimethyl ester

> <PUBCHEM_IUPAC_INCHI>
InChI=1S/C14H16O4/c1-17-13(15)11-5-3-10-8-12(14(16)18-2)6-4-9(10)7-11/h3,5,7,12H,4,6,8H2,1-2H3

> <PUBCHEM_IUPAC_INCHIKEY>
IGFALCDVZUTCGJ-UHFFFAOYSA-N

> <PUBCHEM_XLOGP3_AA>
2.3

> <PUBCHEM_EXACT_MASS>
248.10485899

> <PUBCHEM_MOLECULAR_FORMULA>
C14H16O4

> <PUBCHEM_MOLECULAR_WEIGHT>
248.27

> <PUBCHEM_SMILES>
COC(=O)C1CCC2=C(C1)C=CC(=C2)C(=O)OC

> <PUBCHEM_OPENEYE_CAN_SMILES>
COC(=O)C1CCC2=C(C1)C=CC(=C2)C(=O)OC

> <PUBCHEM_OPENEYE_ISO_SMILES>
COC(=O)C1CCC2=C(C1)C=CC(=C2)C(=O)OC

> <PUBCHEM_CACTVS_TPSA>
52.6

> <PUBCHEM_MONOISOTOPIC_WEIGHT>
248.10485899

> <PUBCHEM_TOTAL_CHARGE>
0

> <PUBCHEM_HEAVY_ATOM_COUNT>
18

> <PUBCHEM_ATOM_DEF_STEREO_COUNT>
0

> <PUBCHEM_ATOM_UDEF_STEREO_COUNT>
1

> <PUBCHEM_BOND_DEF_STEREO_COUNT>
0

> <PUBCHEM_BOND_UDEF_STEREO_COUNT>
0

> <PUBCHEM_ISOTOPIC_ATOM_COUNT>
0

> <PUBCHEM_COMPONENT_COUNT>
1

> <PUBCHEM_CACTVS_TAUTO_COUNT>
-1

> <PUBCHEM_COORDINATE_TYPE>
1
5
255

> <PUBCHEM_BONDANNOTATIONS>
10  12  8
12  14  8
13  15  8
14  15  8
5  11  3
9  10  8
9  13  8

$$$$
