115157
  -OEChem-04042512302D

 62 61  0     0  0  0  0  0  0999 V2000
    7.1962   -2.5981    0.0000 O   0  0  0  0  0  0  0  0  0  0  0  0
   10.6603   -2.5981    0.0000 O   0  0  0  0  0  0  0  0  0  0  0  0
    8.9282   -0.8660    0.0000 O   0  0  0  0  0  0  0  0  0  0  0  0
    4.5981   -3.0981    0.0000 O   0  0  0  0  0  0  0  0  0  0  0  0
   13.2583   -2.0981    0.0000 O   0  0  0  0  0  0  0  0  0  0  0  0
    8.4282    1.7320    0.0000 O   0  0  0  0  0  0  0  0  0  0  0  0
    3.7320   -1.5981    0.0000 O   0  0  0  0  0  0  0  0  0  0  0  0
   14.1244   -3.5981    0.0000 O   0  0  0  0  0  0  0  0  0  0  0  0
    9.9282    2.5981    0.0000 O   0  0  0  0  0  0  0  0  0  0  0  0
    8.9282   -2.5981    0.0000 C   0  0  0  0  0  0  0  0  0  0  0  0
    9.4282   -3.4641    0.0000 C   0  0  0  0  0  0  0  0  0  0  0  0
    8.0622   -3.0981    0.0000 C   0  0  0  0  0  0  0  0  0  0  0  0
    9.7942   -2.0981    0.0000 C   0  0  0  0  0  0  0  0  0  0  0  0
    8.4282   -1.7320    0.0000 C   0  0  0  0  0  0  0  0  0  0  0  0
    8.9282   -4.3301    0.0000 C   0  0  0  0  0  0  0  0  0  0  0  0
    6.3301   -3.0981    0.0000 C   0  0  0  0  0  0  0  0  0  0  0  0
   11.5263   -2.0981    0.0000 C   0  0  0  0  0  0  0  0  0  0  0  0
    8.4282    0.0000    0.0000 C   0  0  0  0  0  0  0  0  0  0  0  0
    5.4641   -2.5981    0.0000 C   0  0  0  0  0  0  0  0  0  0  0  0
   12.3923   -2.5981    0.0000 C   0  0  0  0  0  0  0  0  0  0  0  0
    8.9282    0.8660    0.0000 C   0  0  0  0  0  0  0  0  0  0  0  0
    3.7320   -2.5981    0.0000 C   0  0  0  0  0  0  0  0  0  0  0  0
   14.1244   -2.5981    0.0000 C   0  0  0  0  0  0  0  0  0  0  0  0
    8.9282    2.5981    0.0000 C   0  0  0  0  0  0  0  0  0  0  0  0
    2.8660   -3.0981    0.0000 C   0  0  0  0  0  0  0  0  0  0  0  0
   14.9904   -2.0981    0.0000 C   0  0  0  0  0  0  0  0  0  0  0  0
    8.4282    3.4641    0.0000 C   0  0  0  0  0  0  0  0  0  0  0  0
    2.0000   -2.5981    0.0000 C   0  0  0  0  0  0  0  0  0  0  0  0
   15.8564   -2.5981    0.0000 C   0  0  0  0  0  0  0  0  0  0  0  0
    8.9282    4.3301    0.0000 C   0  0  0  0  0  0  0  0  0  0  0  0
    9.9032   -3.8626    0.0000 H   0  0  0  0  0  0  0  0  0  0  0  0
    9.9032   -3.0656    0.0000 H   0  0  0  0  0  0  0  0  0  0  0  0
    7.6636   -3.5730    0.0000 H   0  0  0  0  0  0  0  0  0  0  0  0
    8.4607   -3.5730    0.0000 H   0  0  0  0  0  0  0  0  0  0  0  0
   10.1928   -1.6231    0.0000 H   0  0  0  0  0  0  0  0  0  0  0  0
    9.3957   -1.6231    0.0000 H   0  0  0  0  0  0  0  0  0  0  0  0
    7.9533   -1.3335    0.0000 H   0  0  0  0  0  0  0  0  0  0  0  0
    7.9533   -2.1306    0.0000 H   0  0  0  0  0  0  0  0  0  0  0  0
    8.3913   -4.0201    0.0000 H   0  0  0  0  0  0  0  0  0  0  0  0
    8.6182   -4.8671    0.0000 H   0  0  0  0  0  0  0  0  0  0  0  0
    9.4651   -4.6401    0.0000 H   0  0  0  0  0  0  0  0  0  0  0  0
    5.9316   -3.5730    0.0000 H   0  0  0  0  0  0  0  0  0  0  0  0
    6.7287   -3.5730    0.0000 H   0  0  0  0  0  0  0  0  0  0  0  0
   11.9248   -1.6231    0.0000 H   0  0  0  0  0  0  0  0  0  0  0  0
   11.1278   -1.6231    0.0000 H   0  0  0  0  0  0  0  0  0  0  0  0
    7.9533    0.3985    0.0000 H   0  0  0  0  0  0  0  0  0  0  0  0
    7.9533   -0.3985    0.0000 H   0  0  0  0  0  0  0  0  0  0  0  0
    5.8626   -2.1231    0.0000 H   0  0  0  0  0  0  0  0  0  0  0  0
    5.0656   -2.1231    0.0000 H   0  0  0  0  0  0  0  0  0  0  0  0
   11.9938   -3.0730    0.0000 H   0  0  0  0  0  0  0  0  0  0  0  0
   12.7908   -3.0730    0.0000 H   0  0  0  0  0  0  0  0  0  0  0  0
    9.4032    0.4675    0.0000 H   0  0  0  0  0  0  0  0  0  0  0  0
    9.4032    1.2646    0.0000 H   0  0  0  0  0  0  0  0  0  0  0  0
    2.8660   -3.7181    0.0000 H   0  0  0  0  0  0  0  0  0  0  0  0
   14.9904   -1.4781    0.0000 H   0  0  0  0  0  0  0  0  0  0  0  0
    7.8082    3.4641    0.0000 H   0  0  0  0  0  0  0  0  0  0  0  0
    2.0000   -1.9781    0.0000 H   0  0  0  0  0  0  0  0  0  0  0  0
    1.4631   -2.9081    0.0000 H   0  0  0  0  0  0  0  0  0  0  0  0
   15.8564   -3.2181    0.0000 H   0  0  0  0  0  0  0  0  0  0  0  0
   16.3933   -2.2881    0.0000 H   0  0  0  0  0  0  0  0  0  0  0  0
    9.5482    4.3301    0.0000 H   0  0  0  0  0  0  0  0  0  0  0  0
    8.6182    4.8671    0.0000 H   0  0  0  0  0  0  0  0  0  0  0  0
  1 12  1  0  0  0  0
  1 16  1  0  0  0  0
  2 13  1  0  0  0  0
  2 17  1  0  0  0  0
  3 14  1  0  0  0  0
  3 18  1  0  0  0  0
  4 19  1  0  0  0  0
  4 22  1  0  0  0  0
  5 20  1  0  0  0  0
  5 23  1  0  0  0  0
  6 21  1  0  0  0  0
  6 24  1  0  0  0  0
  7 22  2  0  0  0  0
  8 23  2  0  0  0  0
  9 24  2  0  0  0  0
 10 11  1  0  0  0  0
 10 12  1  0  0  0  0
 10 13  1  0  0  0  0
 10 14  1  0  0  0  0
 11 15  1  0  0  0  0
 11 31  1  0  0  0  0
 11 32  1  0  0  0  0
 12 33  1  0  0  0  0
 12 34  1  0  0  0  0
 13 35  1  0  0  0  0
 13 36  1  0  0  0  0
 14 37  1  0  0  0  0
 14 38  1  0  0  0  0
 15 39  1  0  0  0  0
 15 40  1  0  0  0  0
 15 41  1  0  0  0  0
 16 19  1  0  0  0  0
 16 42  1  0  0  0  0
 16 43  1  0  0  0  0
 17 20  1  0  0  0  0
 17 44  1  0  0  0  0
 17 45  1  0  0  0  0
 18 21  1  0  0  0  0
 18 46  1  0  0  0  0
 18 47  1  0  0  0  0
 19 48  1  0  0  0  0
 19 49  1  0  0  0  0
 20 50  1  0  0  0  0
 20 51  1  0  0  0  0
 21 52  1  0  0  0  0
 21 53  1  0  0  0  0
 22 25  1  0  0  0  0
 23 26  1  0  0  0  0
 24 27  1  0  0  0  0
 25 28  2  0  0  0  0
 25 54  1  0  0  0  0
 26 29  2  0  0  0  0
 26 55  1  0  0  0  0
 27 30  2  0  0  0  0
 27 56  1  0  0  0  0
 28 57  1  0  0  0  0
 28 58  1  0  0  0  0
 29 59  1  0  0  0  0
 29 60  1  0  0  0  0
 30 61  1  0  0  0  0
 30 62  1  0  0  0  0
M  END
> <PUBCHEM_COMPOUND_CID>
115157

> <PUBCHEM_COMPOUND_CANONICALIZED>
1

> <PUBCHEM_CACTVS_COMPLEXITY>
483

> <PUBCHEM_CACTVS_HBOND_ACCEPTOR>
9

> <PUBCHEM_CACTVS_HBOND_DONOR>
0

> <PUBCHEM_CACTVS_ROTATABLE_BOND>
22

> <PUBCHEM_CACTVS_SUBSKEYS>
AAADcfB4PAAAAAAAAAAAAAAAAAAAAAAAAAAAAAAAAAAAAAAAAAAAGgAAAAAADgCggAICCAAABACIACDSCAAAAAAAAAAIAAAAAEABBAAAIAACAAAFAAACIIAAAAAJAAAAAAAAAAAAAAAAAAAAAAAAAAAAAA==

> <PUBCHEM_IUPAC_OPENEYE_NAME>
2-[2,2-bis(2-prop-2-enoyloxyethoxymethyl)butoxy]ethyl prop-2-enoate

> <PUBCHEM_IUPAC_CAS_NAME>
2-propenoic acid 2-[2,2-bis[2-(1-oxoprop-2-enoxy)ethoxymethyl]butoxy]ethyl ester

> <PUBCHEM_IUPAC_NAME_MARKUP>
2-[2,2-bis(2-prop-2-enoyloxyethoxymethyl)butoxy]ethyl prop-2-enoate

> <PUBCHEM_IUPAC_NAME>
2-[2,2-bis(2-prop-2-enoyloxyethoxymethyl)butoxy]ethyl prop-2-enoate

> <PUBCHEM_IUPAC_SYSTEMATIC_NAME>
2-[2,2-bis(2-prop-2-enoyloxyethoxymethyl)butoxy]ethyl prop-2-enoate

> <PUBCHEM_IUPAC_TRADITIONAL_NAME>
acrylic acid 2-[2,2-bis(2-acryloyloxyethoxymethyl)butoxy]ethyl ester

> <PUBCHEM_IUPAC_INCHI>
InChI=1S/C21H32O9/c1-5-18(22)28-12-9-25-15-21(8-4,16-26-10-13-29-19(23)6-2)17-27-11-14-30-20(24)7-3/h5-7H,1-3,8-17H2,4H3

> <PUBCHEM_IUPAC_INCHIKEY>
MTPIZGPBYCHTGQ-UHFFFAOYSA-N

> <PUBCHEM_XLOGP3_AA>
2.2

> <PUBCHEM_EXACT_MASS>
428.20463259

> <PUBCHEM_MOLECULAR_FORMULA>
C21H32O9

> <PUBCHEM_MOLECULAR_WEIGHT>
428.5

> <PUBCHEM_SMILES>
CCC(COCCOC(=O)C=C)(COCCOC(=O)C=C)COCCOC(=O)C=C

> <PUBCHEM_OPENEYE_CAN_SMILES>
CCC(COCCOC(=O)C=C)(COCCOC(=O)C=C)COCCOC(=O)C=C

> <PUBCHEM_OPENEYE_ISO_SMILES>
CCC(COCCOC(=O)C=C)(COCCOC(=O)C=C)COCCOC(=O)C=C

> <PUBCHEM_CACTVS_TPSA>
107

> <PUBCHEM_MONOISOTOPIC_WEIGHT>
428.20463259

> <PUBCHEM_TOTAL_CHARGE>
0

> <PUBCHEM_HEAVY_ATOM_COUNT>
30

> <PUBCHEM_ATOM_DEF_STEREO_COUNT>
0

> <PUBCHEM_ATOM_UDEF_STEREO_COUNT>
0

> <PUBCHEM_BOND_DEF_STEREO_COUNT>
0

> <PUBCHEM_BOND_UDEF_STEREO_COUNT>
0

> <PUBCHEM_ISOTOPIC_ATOM_COUNT>
0

> <PUBCHEM_COMPONENT_COUNT>
1

> <PUBCHEM_CACTVS_TAUTO_COUNT>
-1

> <PUBCHEM_COORDINATE_TYPE>
1
5
255

$$$$
