11605744
  -OEChem-04042512272D

 60 63  0     0  0  0  0  0  0999 V2000
    3.0000    0.5000    0.0000 F   0  0  0  0  0  0  0  0  0  0  0  0
    2.0000    1.5000    0.0000 F   0  0  0  0  0  0  0  0  0  0  0  0
    4.0000    1.5000    0.0000 F   0  0  0  0  0  0  0  0  0  0  0  0
    4.7320   -0.5000    0.0000 N   0  0  0  0  0  0  0  0  0  0  0  0
    8.1962   -0.5000    0.0000 N   0  0  0  0  0  0  0  0  0  0  0  0
    6.4641   -0.5000    0.0000 N   0  0  0  0  0  0  0  0  0  0  0  0
    4.7320    1.5000    0.0000 N   0  0  0  0  0  0  0  0  0  0  0  0
    4.7320    2.5000    0.0000 N   0  0  0  0  0  0  0  0  0  0  0  0
    9.0622    2.0000    0.0000 N   0  0  0  0  0  0  0  0  0  0  0  0
    6.4641    1.5000    0.0000 C   0  0  0  0  0  0  0  0  0  0  0  0
    5.5981    1.0000    0.0000 C   0  0  0  0  0  0  0  0  0  0  0  0
    5.5981    0.0000    0.0000 C   0  0  0  0  0  0  0  0  0  0  0  0
    7.3301    0.0000    0.0000 C   0  0  0  0  0  0  0  0  0  0  0  0
    7.3301    1.0000    0.0000 C   0  0  0  0  0  0  0  0  0  0  0  0
    4.7320   -1.5000    0.0000 C   0  0  0  0  0  0  0  0  0  0  0  0
    9.0622    0.0000    0.0000 C   0  0  0  0  0  0  0  0  0  0  0  0
    6.4641    2.5000    0.0000 C   0  0  0  0  0  0  0  0  0  0  0  0
    3.8660   -2.0000    0.0000 C   0  0  0  0  0  0  0  0  0  0  0  0
    5.5981   -2.0000    0.0000 C   0  0  0  0  0  0  0  0  0  0  0  0
    9.9282   -0.5000    0.0000 C   0  0  0  0  0  0  0  0  0  0  0  0
    9.0622    1.0000    0.0000 C   0  0  0  0  0  0  0  0  0  0  0  0
    4.7320   -3.5000    0.0000 C   0  0  0  0  0  0  0  0  0  0  0  0
   10.7942    1.0000    0.0000 C   0  0  0  0  0  0  0  0  0  0  0  0
    3.8660   -3.0000    0.0000 C   0  0  0  0  0  0  0  0  0  0  0  0
    5.5981   -3.0000    0.0000 C   0  0  0  0  0  0  0  0  0  0  0  0
   10.7942    0.0000    0.0000 C   0  0  0  0  0  0  0  0  0  0  0  0
    9.9282    1.5000    0.0000 C   0  0  0  0  0  0  0  0  0  0  0  0
    3.8660    3.0000    0.0000 C   0  0  0  0  0  0  0  0  0  0  0  0
    3.0000    2.5000    0.0000 C   0  0  0  0  0  0  0  0  0  0  0  0
    8.1962    1.5000    0.0000 C   0  0  0  0  0  0  0  0  0  0  0  0
    4.7320   -4.5000    0.0000 C   0  0  0  0  0  0  0  0  0  0  0  0
   11.6603    1.5000    0.0000 C   0  0  0  0  0  0  0  0  0  0  0  0
    3.8660    4.0000    0.0000 C   0  0  0  0  0  0  0  0  0  0  0  0
    2.1340    3.0000    0.0000 C   0  0  0  0  0  0  0  0  0  0  0  0
    3.0000    1.5000    0.0000 C   0  0  0  0  0  0  0  0  0  0  0  0
    3.0000    4.5000    0.0000 C   0  0  0  0  0  0  0  0  0  0  0  0
    2.1340    4.0000    0.0000 C   0  0  0  0  0  0  0  0  0  0  0  0
    4.1951   -0.1900    0.0000 H   0  0  0  0  0  0  0  0  0  0  0  0
    8.1962   -1.1200    0.0000 H   0  0  0  0  0  0  0  0  0  0  0  0
    7.0841    2.5000    0.0000 H   0  0  0  0  0  0  0  0  0  0  0  0
    6.4641    3.1200    0.0000 H   0  0  0  0  0  0  0  0  0  0  0  0
    5.8441    2.5000    0.0000 H   0  0  0  0  0  0  0  0  0  0  0  0
    3.3291   -1.6900    0.0000 H   0  0  0  0  0  0  0  0  0  0  0  0
    6.1350   -1.6900    0.0000 H   0  0  0  0  0  0  0  0  0  0  0  0
    9.9282   -1.1200    0.0000 H   0  0  0  0  0  0  0  0  0  0  0  0
    8.5252    1.3100    0.0000 H   0  0  0  0  0  0  0  0  0  0  0  0
    3.3291   -3.3100    0.0000 H   0  0  0  0  0  0  0  0  0  0  0  0
    6.1350   -3.3100    0.0000 H   0  0  0  0  0  0  0  0  0  0  0  0
   11.3312   -0.3100    0.0000 H   0  0  0  0  0  0  0  0  0  0  0  0
    9.9282    2.1200    0.0000 H   0  0  0  0  0  0  0  0  0  0  0  0
    4.1120   -4.5000    0.0000 H   0  0  0  0  0  0  0  0  0  0  0  0
    4.7320   -5.1200    0.0000 H   0  0  0  0  0  0  0  0  0  0  0  0
    5.3520   -4.5000    0.0000 H   0  0  0  0  0  0  0  0  0  0  0  0
   11.9703    0.9631    0.0000 H   0  0  0  0  0  0  0  0  0  0  0  0
   12.1972    1.8100    0.0000 H   0  0  0  0  0  0  0  0  0  0  0  0
   11.3503    2.0369    0.0000 H   0  0  0  0  0  0  0  0  0  0  0  0
    4.4030    4.3100    0.0000 H   0  0  0  0  0  0  0  0  0  0  0  0
    1.5970    2.6900    0.0000 H   0  0  0  0  0  0  0  0  0  0  0  0
    3.0000    5.1200    0.0000 H   0  0  0  0  0  0  0  0  0  0  0  0
    1.5970    4.3100    0.0000 H   0  0  0  0  0  0  0  0  0  0  0  0
  1 35  1  0  0  0  0
  2 35  1  0  0  0  0
  3 35  1  0  0  0  0
  4 12  1  0  0  0  0
  4 15  1  0  0  0  0
  4 38  1  0  0  0  0
  5 13  1  0  0  0  0
  5 16  1  0  0  0  0
  5 39  1  0  0  0  0
  6 12  1  0  0  0  0
  6 13  2  0  0  0  0
  7  8  2  0  0  0  0
  7 11  1  0  0  0  0
  8 28  1  0  0  0  0
  9 30  3  0  0  0  0
 10 11  1  0  0  0  0
 10 14  2  0  0  0  0
 10 17  1  0  0  0  0
 11 12  2  0  0  0  0
 13 14  1  0  0  0  0
 14 30  1  0  0  0  0
 15 18  2  0  0  0  0
 15 19  1  0  0  0  0
 16 20  2  0  0  0  0
 16 21  1  0  0  0  0
 17 40  1  0  0  0  0
 17 41  1  0  0  0  0
 17 42  1  0  0  0  0
 18 24  1  0  0  0  0
 18 43  1  0  0  0  0
 19 25  2  0  0  0  0
 19 44  1  0  0  0  0
 20 26  1  0  0  0  0
 20 45  1  0  0  0  0
 21 27  2  0  0  0  0
 21 46  1  0  0  0  0
 22 24  2  0  0  0  0
 22 25  1  0  0  0  0
 22 31  1  0  0  0  0
 23 26  2  0  0  0  0
 23 27  1  0  0  0  0
 23 32  1  0  0  0  0
 24 47  1  0  0  0  0
 25 48  1  0  0  0  0
 26 49  1  0  0  0  0
 27 50  1  0  0  0  0
 28 29  1  0  0  0  0
 28 33  2  0  0  0  0
 29 34  2  0  0  0  0
 29 35  1  0  0  0  0
 31 51  1  0  0  0  0
 31 52  1  0  0  0  0
 31 53  1  0  0  0  0
 32 54  1  0  0  0  0
 32 55  1  0  0  0  0
 32 56  1  0  0  0  0
 33 36  1  0  0  0  0
 33 57  1  0  0  0  0
 34 37  1  0  0  0  0
 34 58  1  0  0  0  0
 36 37  2  0  0  0  0
 36 59  1  0  0  0  0
 37 60  1  0  0  0  0
M  END
> <PUBCHEM_COMPOUND_CID>
11605744

> <PUBCHEM_COMPOUND_CANONICALIZED>
1

> <PUBCHEM_CACTVS_COMPLEXITY>
793

> <PUBCHEM_CACTVS_HBOND_ACCEPTOR>
9

> <PUBCHEM_CACTVS_HBOND_DONOR>
2

> <PUBCHEM_CACTVS_ROTATABLE_BOND>
6

> <PUBCHEM_CACTVS_SUBSKEYS>
AAADceB7gYAAAAAAAAAAAAAAAAAAAAAAAAA8YMEAAAAAAAAB1AAAHQAYAAAADAiBGhAz8JLIEACyBiZiZACigCkhEiAJmCAgdJiI4GLAmZGUIAhokALIyC8QgAAOiAAAAAACAAAQAAAAAAQAAAAAAAAAAA==

> <PUBCHEM_IUPAC_OPENEYE_NAME>
4-methyl-2,6-bis(4-methylanilino)-5-[2-(trifluoromethyl)phenyl]azo-pyridine-3-carbonitrile

> <PUBCHEM_IUPAC_CAS_NAME>
4-methyl-2,6-bis(4-methylanilino)-5-[2-(trifluoromethyl)phenyl]azo-3-pyridinecarbonitrile

> <PUBCHEM_IUPAC_NAME_MARKUP>
4-methyl-2,6-bis(4-methylanilino)-5-[[2-(trifluoromethyl)phenyl]diazenyl]pyridine-3-carbonitrile

> <PUBCHEM_IUPAC_NAME>
4-methyl-2,6-bis(4-methylanilino)-5-[[2-(trifluoromethyl)phenyl]diazenyl]pyridine-3-carbonitrile

> <PUBCHEM_IUPAC_SYSTEMATIC_NAME>
4-methyl-2,6-bis[(4-methylphenyl)amino]-5-[[2-(trifluoromethyl)phenyl]diazenyl]pyridine-3-carbonitrile

> <PUBCHEM_IUPAC_TRADITIONAL_NAME>
4-methyl-2,6-bis(p-toluidino)-5-[2-(trifluoromethyl)phenyl]azo-nicotinonitrile

> <PUBCHEM_IUPAC_INCHI>
InChI=1S/C28H23F3N6/c1-17-8-12-20(13-9-17)33-26-22(16-32)19(3)25(27(35-26)34-21-14-10-18(2)11-15-21)37-36-24-7-5-4-6-23(24)28(29,30)31/h4-15H,1-3H3,(H2,33,34,35)

> <PUBCHEM_IUPAC_INCHIKEY>
FOICTPKVVFHDJU-UHFFFAOYSA-N

> <PUBCHEM_XLOGP3_AA>
8.6

> <PUBCHEM_EXACT_MASS>
500.19362925

> <PUBCHEM_MOLECULAR_FORMULA>
C28H23F3N6

> <PUBCHEM_MOLECULAR_WEIGHT>
500.5

> <PUBCHEM_SMILES>
CC1=CC=C(C=C1)NC2=C(C(=C(C(=N2)NC3=CC=C(C=C3)C)C#N)C)N=NC4=CC=CC=C4C(F)(F)F

> <PUBCHEM_OPENEYE_CAN_SMILES>
CC1=CC=C(C=C1)NC2=C(C(=C(C(=N2)NC3=CC=C(C=C3)C)C#N)C)N=NC4=CC=CC=C4C(F)(F)F

> <PUBCHEM_OPENEYE_ISO_SMILES>
CC1=CC=C(C=C1)NC2=C(C(=C(C(=N2)NC3=CC=C(C=C3)C)C#N)C)N=NC4=CC=CC=C4C(F)(F)F

> <PUBCHEM_CACTVS_TPSA>
85.5

> <PUBCHEM_MONOISOTOPIC_WEIGHT>
500.19362925

> <PUBCHEM_TOTAL_CHARGE>
0

> <PUBCHEM_HEAVY_ATOM_COUNT>
37

> <PUBCHEM_ATOM_DEF_STEREO_COUNT>
0

> <PUBCHEM_ATOM_UDEF_STEREO_COUNT>
0

> <PUBCHEM_BOND_DEF_STEREO_COUNT>
0

> <PUBCHEM_BOND_UDEF_STEREO_COUNT>
0

> <PUBCHEM_ISOTOPIC_ATOM_COUNT>
0

> <PUBCHEM_COMPONENT_COUNT>
1

> <PUBCHEM_CACTVS_TAUTO_COUNT>
-1

> <PUBCHEM_COORDINATE_TYPE>
1
5
255

> <PUBCHEM_BONDANNOTATIONS>
10  11  8
10  14  8
11  12  8
13  14  8
15  18  8
15  19  8
16  20  8
16  21  8
18  24  8
19  25  8
20  26  8
21  27  8
22  24  8
22  25  8
23  26  8
23  27  8
28  29  8
28  33  8
29  34  8
33  36  8
34  37  8
36  37  8
6  12  8
6  13  8

$$$$
