11707128
  -OEChem-04042505342D

 78 84  0     0  0  0  0  0  0999 V2000
    8.0622    4.7500    0.0000 O   0  0  0  0  0  0  0  0  0  0  0  0
   14.1244   -2.7500    0.0000 O   0  0  0  0  0  0  0  0  0  0  0  0
    4.5981   -4.2500    0.0000 O   0  0  0  0  0  0  0  0  0  0  0  0
    8.9282    0.2500    0.0000 C   0  0  0  0  0  0  0  0  0  0  0  0
    9.7942   -1.2500    0.0000 C   0  0  0  0  0  0  0  0  0  0  0  0
    8.0622   -1.2500    0.0000 C   0  0  0  0  0  0  0  0  0  0  0  0
    9.7942   -0.2500    0.0000 C   0  0  0  0  0  0  0  0  0  0  0  0
    8.0622   -0.2500    0.0000 C   0  0  0  0  0  0  0  0  0  0  0  0
    8.9282   -1.7500    0.0000 C   0  0  0  0  0  0  0  0  0  0  0  0
    8.9282    1.2500    0.0000 C   0  0  0  0  0  0  0  0  0  0  0  0
   10.6603   -1.7500    0.0000 C   0  0  0  0  0  0  0  0  0  0  0  0
    7.1962   -1.7500    0.0000 C   0  0  0  0  0  0  0  0  0  0  0  0
    9.7942    1.7500    0.0000 C   0  0  0  0  0  0  0  0  0  0  0  0
   11.5263   -1.2500    0.0000 C   0  0  0  0  0  0  0  0  0  0  0  0
    7.1962   -2.7500    0.0000 C   0  0  0  0  0  0  0  0  0  0  0  0
    8.0622    1.7500    0.0000 C   0  0  0  0  0  0  0  0  0  0  0  0
   10.6603   -2.7500    0.0000 C   0  0  0  0  0  0  0  0  0  0  0  0
    6.3301   -1.2500    0.0000 C   0  0  0  0  0  0  0  0  0  0  0  0
    8.9282    3.2500    0.0000 C   0  0  0  0  0  0  0  0  0  0  0  0
   12.3923   -2.7500    0.0000 C   0  0  0  0  0  0  0  0  0  0  0  0
    5.4641   -2.7500    0.0000 C   0  0  0  0  0  0  0  0  0  0  0  0
    9.7942    2.7500    0.0000 C   0  0  0  0  0  0  0  0  0  0  0  0
   12.3923   -1.7500    0.0000 C   0  0  0  0  0  0  0  0  0  0  0  0
    6.3301   -3.2500    0.0000 C   0  0  0  0  0  0  0  0  0  0  0  0
    8.0622    2.7500    0.0000 C   0  0  0  0  0  0  0  0  0  0  0  0
   11.5263   -3.2500    0.0000 C   0  0  0  0  0  0  0  0  0  0  0  0
    5.4641   -1.7500    0.0000 C   0  0  0  0  0  0  0  0  0  0  0  0
    8.9282    4.2500    0.0000 C   0  0  0  0  0  0  0  0  0  0  0  0
   13.2583   -3.2500    0.0000 C   0  0  0  0  0  0  0  0  0  0  0  0
    4.5981   -3.2500    0.0000 C   0  0  0  0  0  0  0  0  0  0  0  0
    9.7942    4.7500    0.0000 C   0  0  0  0  0  0  0  0  0  0  0  0
   13.2583   -4.2500    0.0000 C   0  0  0  0  0  0  0  0  0  0  0  0
    3.7320   -2.7500    0.0000 C   0  0  0  0  0  0  0  0  0  0  0  0
   10.6603    4.2500    0.0000 C   0  0  0  0  0  0  0  0  0  0  0  0
   14.1244   -4.7500    0.0000 C   0  0  0  0  0  0  0  0  0  0  0  0
    2.8660   -3.2500    0.0000 C   0  0  0  0  0  0  0  0  0  0  0  0
    9.7942    5.7500    0.0000 C   0  0  0  0  0  0  0  0  0  0  0  0
   12.3923   -4.7500    0.0000 C   0  0  0  0  0  0  0  0  0  0  0  0
    3.7320   -1.7500    0.0000 C   0  0  0  0  0  0  0  0  0  0  0  0
   11.5263    4.7500    0.0000 C   0  0  0  0  0  0  0  0  0  0  0  0
   14.1244   -5.7500    0.0000 C   0  0  0  0  0  0  0  0  0  0  0  0
    2.0000   -2.7500    0.0000 C   0  0  0  0  0  0  0  0  0  0  0  0
   10.6603    6.2500    0.0000 C   0  0  0  0  0  0  0  0  0  0  0  0
   12.3923   -5.7500    0.0000 C   0  0  0  0  0  0  0  0  0  0  0  0
    2.8660   -1.2500    0.0000 C   0  0  0  0  0  0  0  0  0  0  0  0
   11.5263    5.7500    0.0000 C   0  0  0  0  0  0  0  0  0  0  0  0
   13.2583   -6.2500    0.0000 C   0  0  0  0  0  0  0  0  0  0  0  0
    2.0000   -1.7500    0.0000 C   0  0  0  0  0  0  0  0  0  0  0  0
   10.3312    0.0600    0.0000 H   0  0  0  0  0  0  0  0  0  0  0  0
    7.5252    0.0600    0.0000 H   0  0  0  0  0  0  0  0  0  0  0  0
    8.9282   -2.3700    0.0000 H   0  0  0  0  0  0  0  0  0  0  0  0
   10.3312    1.4400    0.0000 H   0  0  0  0  0  0  0  0  0  0  0  0
   11.5263   -0.6300    0.0000 H   0  0  0  0  0  0  0  0  0  0  0  0
    7.7331   -3.0600    0.0000 H   0  0  0  0  0  0  0  0  0  0  0  0
    7.5252    1.4400    0.0000 H   0  0  0  0  0  0  0  0  0  0  0  0
   10.1233   -3.0600    0.0000 H   0  0  0  0  0  0  0  0  0  0  0  0
    6.3301   -0.6300    0.0000 H   0  0  0  0  0  0  0  0  0  0  0  0
   10.3312    3.0600    0.0000 H   0  0  0  0  0  0  0  0  0  0  0  0
   12.9292   -1.4400    0.0000 H   0  0  0  0  0  0  0  0  0  0  0  0
    6.3301   -3.8700    0.0000 H   0  0  0  0  0  0  0  0  0  0  0  0
    7.5252    3.0600    0.0000 H   0  0  0  0  0  0  0  0  0  0  0  0
   11.5263   -3.8700    0.0000 H   0  0  0  0  0  0  0  0  0  0  0  0
    4.9272   -1.4400    0.0000 H   0  0  0  0  0  0  0  0  0  0  0  0
   10.6603    3.6300    0.0000 H   0  0  0  0  0  0  0  0  0  0  0  0
   14.6613   -4.4400    0.0000 H   0  0  0  0  0  0  0  0  0  0  0  0
    2.8660   -3.8700    0.0000 H   0  0  0  0  0  0  0  0  0  0  0  0
    9.2573    6.0600    0.0000 H   0  0  0  0  0  0  0  0  0  0  0  0
   11.8554   -4.4400    0.0000 H   0  0  0  0  0  0  0  0  0  0  0  0
    4.2690   -1.4400    0.0000 H   0  0  0  0  0  0  0  0  0  0  0  0
   12.0632    4.4400    0.0000 H   0  0  0  0  0  0  0  0  0  0  0  0
   14.6613   -6.0600    0.0000 H   0  0  0  0  0  0  0  0  0  0  0  0
    1.4631   -3.0600    0.0000 H   0  0  0  0  0  0  0  0  0  0  0  0
   10.6603    6.8700    0.0000 H   0  0  0  0  0  0  0  0  0  0  0  0
   11.8554   -6.0600    0.0000 H   0  0  0  0  0  0  0  0  0  0  0  0
    2.8660   -0.6300    0.0000 H   0  0  0  0  0  0  0  0  0  0  0  0
   12.0632    6.0600    0.0000 H   0  0  0  0  0  0  0  0  0  0  0  0
   13.2583   -6.8700    0.0000 H   0  0  0  0  0  0  0  0  0  0  0  0
    1.4631   -1.4400    0.0000 H   0  0  0  0  0  0  0  0  0  0  0  0
  1 28  2  0  0  0  0
  2 29  2  0  0  0  0
  3 30  2  0  0  0  0
  4  7  2  0  0  0  0
  4  8  1  0  0  0  0
  4 10  1  0  0  0  0
  5  7  1  0  0  0  0
  5  9  2  0  0  0  0
  5 11  1  0  0  0  0
  6  8  2  0  0  0  0
  6  9  1  0  0  0  0
  6 12  1  0  0  0  0
  7 49  1  0  0  0  0
  8 50  1  0  0  0  0
  9 51  1  0  0  0  0
 10 13  2  0  0  0  0
 10 16  1  0  0  0  0
 11 14  2  0  0  0  0
 11 17  1  0  0  0  0
 12 15  2  0  0  0  0
 12 18  1  0  0  0  0
 13 22  1  0  0  0  0
 13 52  1  0  0  0  0
 14 23  1  0  0  0  0
 14 53  1  0  0  0  0
 15 24  1  0  0  0  0
 15 54  1  0  0  0  0
 16 25  2  0  0  0  0
 16 55  1  0  0  0  0
 17 26  2  0  0  0  0
 17 56  1  0  0  0  0
 18 27  2  0  0  0  0
 18 57  1  0  0  0  0
 19 22  2  0  0  0  0
 19 25  1  0  0  0  0
 19 28  1  0  0  0  0
 20 23  2  0  0  0  0
 20 26  1  0  0  0  0
 20 29  1  0  0  0  0
 21 24  2  0  0  0  0
 21 27  1  0  0  0  0
 21 30  1  0  0  0  0
 22 58  1  0  0  0  0
 23 59  1  0  0  0  0
 24 60  1  0  0  0  0
 25 61  1  0  0  0  0
 26 62  1  0  0  0  0
 27 63  1  0  0  0  0
 28 31  1  0  0  0  0
 29 32  1  0  0  0  0
 30 33  1  0  0  0  0
 31 34  2  0  0  0  0
 31 37  1  0  0  0  0
 32 35  2  0  0  0  0
 32 38  1  0  0  0  0
 33 36  2  0  0  0  0
 33 39  1  0  0  0  0
 34 40  1  0  0  0  0
 34 64  1  0  0  0  0
 35 41  1  0  0  0  0
 35 65  1  0  0  0  0
 36 42  1  0  0  0  0
 36 66  1  0  0  0  0
 37 43  2  0  0  0  0
 37 67  1  0  0  0  0
 38 44  2  0  0  0  0
 38 68  1  0  0  0  0
 39 45  2  0  0  0  0
 39 69  1  0  0  0  0
 40 46  2  0  0  0  0
 40 70  1  0  0  0  0
 41 47  2  0  0  0  0
 41 71  1  0  0  0  0
 42 48  2  0  0  0  0
 42 72  1  0  0  0  0
 43 46  1  0  0  0  0
 43 73  1  0  0  0  0
 44 47  1  0  0  0  0
 44 74  1  0  0  0  0
 45 48  1  0  0  0  0
 45 75  1  0  0  0  0
 46 76  1  0  0  0  0
 47 77  1  0  0  0  0
 48 78  1  0  0  0  0
M  END
> <PUBCHEM_COMPOUND_CID>
11707128

> <PUBCHEM_COMPOUND_CANONICALIZED>
1

> <PUBCHEM_CACTVS_COMPLEXITY>
891

> <PUBCHEM_CACTVS_HBOND_ACCEPTOR>
3

> <PUBCHEM_CACTVS_HBOND_DONOR>
0

> <PUBCHEM_CACTVS_ROTATABLE_BOND>
9

> <PUBCHEM_CACTVS_SUBSKEYS>
AAADceB8MAAAAAAAAAAAAAAAAAAAAAAAAAAwYMGDAAAAAAABVAAAGgAAAAAADASAmAAwAIAAAACIAqBSAAACAAAkAAAIiAEAAMgIIDKAFRCAIQAggAAIiYcIiMCOwAACAAAAAACAAAQAAAAAAAAAAAAAAA==

> <PUBCHEM_IUPAC_OPENEYE_NAME>
[4-[3,5-bis(4-benzoylphenyl)phenyl]phenyl]-phenyl-methanone

> <PUBCHEM_IUPAC_CAS_NAME>
[4-[3,5-bis(4-benzoylphenyl)phenyl]phenyl]-phenylmethanone

> <PUBCHEM_IUPAC_NAME_MARKUP>
[4-[3,5-bis(4-benzoylphenyl)phenyl]phenyl]-phenylmethanone

> <PUBCHEM_IUPAC_NAME>
[4-[3,5-bis(4-benzoylphenyl)phenyl]phenyl]-phenylmethanone

> <PUBCHEM_IUPAC_SYSTEMATIC_NAME>
[4-[3,5-bis[4-(phenylcarbonyl)phenyl]phenyl]phenyl]-phenyl-methanone

> <PUBCHEM_IUPAC_TRADITIONAL_NAME>
[4-[3,5-bis(4-benzoylphenyl)phenyl]phenyl]-phenyl-methanone

> <PUBCHEM_IUPAC_INCHI>
InChI=1S/C45H30O3/c46-43(34-10-4-1-5-11-34)37-22-16-31(17-23-37)40-28-41(32-18-24-38(25-19-32)44(47)35-12-6-2-7-13-35)30-42(29-40)33-20-26-39(27-21-33)45(48)36-14-8-3-9-15-36/h1-30H

> <PUBCHEM_IUPAC_INCHIKEY>
WOOBPQGYVSIZEF-UHFFFAOYSA-N

> <PUBCHEM_XLOGP3_AA>
10.8

> <PUBCHEM_EXACT_MASS>
618.21949481

> <PUBCHEM_MOLECULAR_FORMULA>
C45H30O3

> <PUBCHEM_MOLECULAR_WEIGHT>
618.7

> <PUBCHEM_SMILES>
C1=CC=C(C=C1)C(=O)C2=CC=C(C=C2)C3=CC(=CC(=C3)C4=CC=C(C=C4)C(=O)C5=CC=CC=C5)C6=CC=C(C=C6)C(=O)C7=CC=CC=C7

> <PUBCHEM_OPENEYE_CAN_SMILES>
C1=CC=C(C=C1)C(=O)C2=CC=C(C=C2)C3=CC(=CC(=C3)C4=CC=C(C=C4)C(=O)C5=CC=CC=C5)C6=CC=C(C=C6)C(=O)C7=CC=CC=C7

> <PUBCHEM_OPENEYE_ISO_SMILES>
C1=CC=C(C=C1)C(=O)C2=CC=C(C=C2)C3=CC(=CC(=C3)C4=CC=C(C=C4)C(=O)C5=CC=CC=C5)C6=CC=C(C=C6)C(=O)C7=CC=CC=C7

> <PUBCHEM_CACTVS_TPSA>
51.2

> <PUBCHEM_MONOISOTOPIC_WEIGHT>
618.21949481

> <PUBCHEM_TOTAL_CHARGE>
0

> <PUBCHEM_HEAVY_ATOM_COUNT>
48

> <PUBCHEM_ATOM_DEF_STEREO_COUNT>
0

> <PUBCHEM_ATOM_UDEF_STEREO_COUNT>
0

> <PUBCHEM_BOND_DEF_STEREO_COUNT>
0

> <PUBCHEM_BOND_UDEF_STEREO_COUNT>
0

> <PUBCHEM_ISOTOPIC_ATOM_COUNT>
0

> <PUBCHEM_COMPONENT_COUNT>
1

> <PUBCHEM_CACTVS_TAUTO_COUNT>
-1

> <PUBCHEM_COORDINATE_TYPE>
1
5
255

> <PUBCHEM_BONDANNOTATIONS>
10  13  8
10  16  8
11  14  8
11  17  8
12  15  8
12  18  8
13  22  8
14  23  8
15  24  8
16  25  8
17  26  8
18  27  8
19  22  8
19  25  8
20  23  8
20  26  8
21  24  8
21  27  8
31  34  8
31  37  8
32  35  8
32  38  8
33  36  8
33  39  8
34  40  8
35  41  8
36  42  8
37  43  8
38  44  8
39  45  8
4  7  8
4  8  8
40  46  8
41  47  8
42  48  8
43  46  8
44  47  8
45  48  8
5  7  8
5  9  8
6  8  8
6  9  8

$$$$
