118320794
  -OEChem-04042512452D

133138  0     1  0  0  0  0  0999 V2000
    5.9803   -2.1706    0.0000 P   0  0  0  0  0  0  0  0  0  0  0  0
    5.0564   -2.5533    0.0000 O   0  0  0  0  0  0  0  0  0  0  0  0
    6.9042   -2.5533    0.0000 O   0  0  0  0  0  0  0  0  0  0  0  0
    8.3415    3.8547    0.0000 O   0  0  0  0  0  0  0  0  0  0  0  0
    5.9803   -1.1706    0.0000 O   0  0  0  0  0  0  0  0  0  0  0  0
    9.0911    2.2443    0.0000 O   0  0  0  0  0  0  0  0  0  0  0  0
    5.9803   -4.7837    0.0000 C   0  0  0  0  0  0  0  0  0  0  0  0
    5.0564   -4.4010    0.0000 C   0  0  0  0  0  0  0  0  0  0  0  0
    6.9042   -4.4010    0.0000 C   0  0  0  0  0  0  0  0  0  0  0  0
    3.2713   -2.3970    0.0000 C   0  0  0  0  0  0  0  0  0  0  0  0
    8.6893   -2.3970    0.0000 C   0  0  0  0  0  0  0  0  0  0  0  0
    3.6432   -3.3253    0.0000 C   0  0  0  0  0  0  0  0  0  0  0  0
    8.3174   -3.3253    0.0000 C   0  0  0  0  0  0  0  0  0  0  0  0
    2.7957   -5.9048    0.0000 C   0  0  0  0  0  0  0  0  0  0  0  0
    9.1649   -5.9048    0.0000 C   0  0  0  0  0  0  0  0  0  0  0  0
    3.4014   -5.1091    0.0000 C   0  0  0  0  0  0  0  0  0  0  0  0
    8.5592   -5.1091    0.0000 C   0  0  0  0  0  0  0  0  0  0  0  0
    4.6737   -3.4772    0.0000 C   0  0  0  0  0  0  0  0  0  0  0  0
    7.2869   -3.4772    0.0000 C   0  0  0  0  0  0  0  0  0  0  0  0
    7.6528    5.9135    0.0000 C   0  0  0  0  0  0  0  0  0  0  0  0
    4.4351   -5.2371    0.0000 C   0  0  0  0  0  0  0  0  0  0  0  0
    7.5255   -5.2371    0.0000 C   0  0  0  0  0  0  0  0  0  0  0  0
    3.0028   -4.1468    0.0000 C   0  0  0  0  0  0  0  0  0  0  0  0
    8.9578   -4.1468    0.0000 C   0  0  0  0  0  0  0  0  0  0  0  0
    7.0358    5.1266    0.0000 C   0  0  0  0  0  0  0  0  0  0  0  0
    4.4387    4.6214    0.0000 C   0  0  0  0  0  0  0  0  0  0  0  0
    6.7918    3.4118    0.0000 C   0  0  0  0  0  0  0  0  0  0  0  0
    7.3484    2.5882    0.0000 C   0  0  3  0  0  0  0  0  0  0  0  0
    5.4288    4.4805    0.0000 C   0  0  0  0  0  0  0  0  0  0  0  0
    7.4088    4.1988    0.0000 C   0  0  0  0  0  0  0  0  0  0  0  0
    5.9803   -5.7837    0.0000 C   0  0  0  0  0  0  0  0  0  0  0  0
    6.0458    5.2675    0.0000 C   0  0  0  0  0  0  0  0  0  0  0  0
    5.8018    3.5527    0.0000 C   0  0  0  0  0  0  0  0  0  0  0  0
    2.8993   -1.4688    0.0000 C   0  0  0  0  0  0  0  0  0  0  0  0
    2.3430   -2.7690    0.0000 C   0  0  0  0  0  0  0  0  0  0  0  0
    4.1995   -2.0251    0.0000 C   0  0  0  0  0  0  0  0  0  0  0  0
    9.6176   -2.7690    0.0000 C   0  0  0  0  0  0  0  0  0  0  0  0
    9.0613   -1.4688    0.0000 C   0  0  0  0  0  0  0  0  0  0  0  0
    7.7611   -2.0251    0.0000 C   0  0  0  0  0  0  0  0  0  0  0  0
    2.1900   -6.7005    0.0000 C   0  0  0  0  0  0  0  0  0  0  0  0
    2.0000   -5.2991    0.0000 C   0  0  0  0  0  0  0  0  0  0  0  0
    3.5914   -6.5105    0.0000 C   0  0  0  0  0  0  0  0  0  0  0  0
    9.7706   -6.7005    0.0000 C   0  0  0  0  0  0  0  0  0  0  0  0
    9.9606   -5.2991    0.0000 C   0  0  0  0  0  0  0  0  0  0  0  0
    8.3692   -6.5105    0.0000 C   0  0  0  0  0  0  0  0  0  0  0  0
    7.0064    1.6485    0.0000 C   0  0  0  0  0  0  0  0  0  0  0  0
    8.2698    6.7005    0.0000 C   0  0  0  0  0  0  0  0  0  0  0  0
    6.8659    6.5306    0.0000 C   0  0  0  0  0  0  0  0  0  0  0  0
    8.4398    5.2965    0.0000 C   0  0  0  0  0  0  0  0  0  0  0  0
    8.3042    2.8614    0.0000 C   0  0  0  0  0  0  0  0  0  0  0  0
    3.4487    4.7623    0.0000 C   0  0  0  0  0  0  0  0  0  0  0  0
    4.5796    5.6114    0.0000 C   0  0  0  0  0  0  0  0  0  0  0  0
    4.2978    3.6314    0.0000 C   0  0  0  0  0  0  0  0  0  0  0  0
    6.0216    1.4748    0.0000 C   0  0  0  0  0  0  0  0  0  0  0  0
    7.6492    0.8824    0.0000 C   0  0  0  0  0  0  0  0  0  0  0  0
    6.3223   -0.2309    0.0000 C   0  0  0  0  0  0  0  0  0  0  0  0
    5.6795    0.5351    0.0000 C   0  0  0  0  0  0  0  0  0  0  0  0
    7.3071   -0.0573    0.0000 C   0  0  0  0  0  0  0  0  0  0  0  0
    4.6947    0.3615    0.0000 C   0  0  0  0  0  0  0  0  0  0  0  0
    7.9499   -0.8233    0.0000 C   0  0  0  0  0  0  0  0  0  0  0  0
    6.4958   -5.1282    0.0000 H   0  0  0  0  0  0  0  0  0  0  0  0
    4.6790   -5.8071    0.0000 H   0  0  0  0  0  0  0  0  0  0  0  0
    7.2816   -5.8071    0.0000 H   0  0  0  0  0  0  0  0  0  0  0  0
    2.3884   -4.0635    0.0000 H   0  0  0  0  0  0  0  0  0  0  0  0
    9.5722   -4.0635    0.0000 H   0  0  0  0  0  0  0  0  0  0  0  0
    7.7710    2.1346    0.0000 H   0  0  0  0  0  0  0  0  0  0  0  0
    5.3603   -5.7837    0.0000 H   0  0  0  0  0  0  0  0  0  0  0  0
    5.9803   -6.4037    0.0000 H   0  0  0  0  0  0  0  0  0  0  0  0
    6.6003   -5.7837    0.0000 H   0  0  0  0  0  0  0  0  0  0  0  0
    5.8145    5.8427    0.0000 H   0  0  0  0  0  0  0  0  0  0  0  0
    5.4192    3.0648    0.0000 H   0  0  0  0  0  0  0  0  0  0  0  0
    3.4748   -1.2382    0.0000 H   0  0  0  0  0  0  0  0  0  0  0  0
    2.6687   -0.8933    0.0000 H   0  0  0  0  0  0  0  0  0  0  0  0
    2.3238   -1.6994    0.0000 H   0  0  0  0  0  0  0  0  0  0  0  0
    2.1124   -2.1935    0.0000 H   0  0  0  0  0  0  0  0  0  0  0  0
    1.7675   -2.9996    0.0000 H   0  0  0  0  0  0  0  0  0  0  0  0
    2.5736   -3.3445    0.0000 H   0  0  0  0  0  0  0  0  0  0  0  0
    4.4301   -2.6006    0.0000 H   0  0  0  0  0  0  0  0  0  0  0  0
    4.7750   -1.7944    0.0000 H   0  0  0  0  0  0  0  0  0  0  0  0
    3.9689   -1.4496    0.0000 H   0  0  0  0  0  0  0  0  0  0  0  0
    9.3870   -3.3445    0.0000 H   0  0  0  0  0  0  0  0  0  0  0  0
   10.1931   -2.9996    0.0000 H   0  0  0  0  0  0  0  0  0  0  0  0
    9.8482   -2.1935    0.0000 H   0  0  0  0  0  0  0  0  0  0  0  0
    9.6368   -1.6994    0.0000 H   0  0  0  0  0  0  0  0  0  0  0  0
    9.2919   -0.8933    0.0000 H   0  0  0  0  0  0  0  0  0  0  0  0
    8.4858   -1.2382    0.0000 H   0  0  0  0  0  0  0  0  0  0  0  0
    7.9917   -1.4496    0.0000 H   0  0  0  0  0  0  0  0  0  0  0  0
    7.1856   -1.7944    0.0000 H   0  0  0  0  0  0  0  0  0  0  0  0
    7.5305   -2.6006    0.0000 H   0  0  0  0  0  0  0  0  0  0  0  0
    1.6967   -6.3250    0.0000 H   0  0  0  0  0  0  0  0  0  0  0  0
    1.8145   -7.1938    0.0000 H   0  0  0  0  0  0  0  0  0  0  0  0
    2.6833   -7.0760    0.0000 H   0  0  0  0  0  0  0  0  0  0  0  0
    2.3755   -4.8058    0.0000 H   0  0  0  0  0  0  0  0  0  0  0  0
    1.5067   -4.9236    0.0000 H   0  0  0  0  0  0  0  0  0  0  0  0
    1.6245   -5.7924    0.0000 H   0  0  0  0  0  0  0  0  0  0  0  0
    3.2158   -7.0038    0.0000 H   0  0  0  0  0  0  0  0  0  0  0  0
    4.0847   -6.8860    0.0000 H   0  0  0  0  0  0  0  0  0  0  0  0
    3.9669   -6.0172    0.0000 H   0  0  0  0  0  0  0  0  0  0  0  0
    9.2773   -7.0760    0.0000 H   0  0  0  0  0  0  0  0  0  0  0  0
   10.1461   -7.1938    0.0000 H   0  0  0  0  0  0  0  0  0  0  0  0
   10.2639   -6.3250    0.0000 H   0  0  0  0  0  0  0  0  0  0  0  0
   10.3361   -5.7924    0.0000 H   0  0  0  0  0  0  0  0  0  0  0  0
   10.4539   -4.9236    0.0000 H   0  0  0  0  0  0  0  0  0  0  0  0
    9.5851   -4.8058    0.0000 H   0  0  0  0  0  0  0  0  0  0  0  0
    7.9937   -6.0172    0.0000 H   0  0  0  0  0  0  0  0  0  0  0  0
    7.8759   -6.8860    0.0000 H   0  0  0  0  0  0  0  0  0  0  0  0
    8.7447   -7.0038    0.0000 H   0  0  0  0  0  0  0  0  0  0  0  0
    8.7578    6.3179    0.0000 H   0  0  0  0  0  0  0  0  0  0  0  0
    8.6524    7.1884    0.0000 H   0  0  0  0  0  0  0  0  0  0  0  0
    7.7820    7.0830    0.0000 H   0  0  0  0  0  0  0  0  0  0  0  0
    7.2484    7.0185    0.0000 H   0  0  0  0  0  0  0  0  0  0  0  0
    6.3780    6.9131    0.0000 H   0  0  0  0  0  0  0  0  0  0  0  0
    6.4833    6.0427    0.0000 H   0  0  0  0  0  0  0  0  0  0  0  0
    8.0572    4.8086    0.0000 H   0  0  0  0  0  0  0  0  0  0  0  0
    8.9277    4.9140    0.0000 H   0  0  0  0  0  0  0  0  0  0  0  0
    8.8223    5.7844    0.0000 H   0  0  0  0  0  0  0  0  0  0  0  0
    3.5360    5.3761    0.0000 H   0  0  0  0  0  0  0  0  0  0  0  0
    2.8349    4.8497    0.0000 H   0  0  0  0  0  0  0  0  0  0  0  0
    3.3614    4.1485    0.0000 H   0  0  0  0  0  0  0  0  0  0  0  0
    5.1934    5.5241    0.0000 H   0  0  0  0  0  0  0  0  0  0  0  0
    4.6670    6.2253    0.0000 H   0  0  0  0  0  0  0  0  0  0  0  0
    3.9658    5.6988    0.0000 H   0  0  0  0  0  0  0  0  0  0  0  0
    3.6840    3.7188    0.0000 H   0  0  0  0  0  0  0  0  0  0  0  0
    4.2105    3.0176    0.0000 H   0  0  0  0  0  0  0  0  0  0  0  0
    4.9117    3.5440    0.0000 H   0  0  0  0  0  0  0  0  0  0  0  0
    5.6230    1.9498    0.0000 H   0  0  0  0  0  0  0  0  0  0  0  0
    8.2597    0.9901    0.0000 H   0  0  0  0  0  0  0  0  0  0  0  0
    4.5871    0.9721    0.0000 H   0  0  0  0  0  0  0  0  0  0  0  0
    4.0841    0.2538    0.0000 H   0  0  0  0  0  0  0  0  0  0  0  0
    4.8024   -0.2491    0.0000 H   0  0  0  0  0  0  0  0  0  0  0  0
    7.4750   -1.2218    0.0000 H   0  0  0  0  0  0  0  0  0  0  0  0
    8.3484   -1.2982    0.0000 H   0  0  0  0  0  0  0  0  0  0  0  0
    8.4249   -0.4248    0.0000 H   0  0  0  0  0  0  0  0  0  0  0  0
  1  2  1  0  0  0  0
  1  3  1  0  0  0  0
  1  5  1  0  0  0  0
  2 18  1  0  0  0  0
  3 19  1  0  0  0  0
  4 30  1  0  0  0  0
  4 50  1  0  0  0  0
  5 56  1  0  0  0  0
  6 50  2  0  0  0  0
  7  8  1  0  0  0  0
  7  9  1  0  0  0  0
  7 31  1  0  0  0  0
  7 61  1  0  0  0  0
  8 18  2  0  0  0  0
  8 21  1  0  0  0  0
  9 19  2  0  0  0  0
  9 22  1  0  0  0  0
 10 12  1  0  0  0  0
 10 34  1  0  0  0  0
 10 35  1  0  0  0  0
 10 36  1  0  0  0  0
 11 13  1  0  0  0  0
 11 37  1  0  0  0  0
 11 38  1  0  0  0  0
 11 39  1  0  0  0  0
 12 18  1  0  0  0  0
 12 23  2  0  0  0  0
 13 19  1  0  0  0  0
 13 24  2  0  0  0  0
 14 16  1  0  0  0  0
 14 40  1  0  0  0  0
 14 41  1  0  0  0  0
 14 42  1  0  0  0  0
 15 17  1  0  0  0  0
 15 43  1  0  0  0  0
 15 44  1  0  0  0  0
 15 45  1  0  0  0  0
 16 21  2  0  0  0  0
 16 23  1  0  0  0  0
 17 22  2  0  0  0  0
 17 24  1  0  0  0  0
 20 25  1  0  0  0  0
 20 47  1  0  0  0  0
 20 48  1  0  0  0  0
 20 49  1  0  0  0  0
 21 62  1  0  0  0  0
 22 63  1  0  0  0  0
 23 64  1  0  0  0  0
 24 65  1  0  0  0  0
 25 30  1  0  0  0  0
 25 32  2  0  0  0  0
 26 29  1  0  0  0  0
 26 51  1  0  0  0  0
 26 52  1  0  0  0  0
 26 53  1  0  0  0  0
 27 28  1  0  0  0  0
 27 30  2  0  0  0  0
 27 33  1  0  0  0  0
 28 46  1  0  0  0  0
 28 50  1  0  0  0  0
 28 66  1  0  0  0  0
 29 32  1  0  0  0  0
 29 33  2  0  0  0  0
 31 67  1  0  0  0  0
 31 68  1  0  0  0  0
 31 69  1  0  0  0  0
 32 70  1  0  0  0  0
 33 71  1  0  0  0  0
 34 72  1  0  0  0  0
 34 73  1  0  0  0  0
 34 74  1  0  0  0  0
 35 75  1  0  0  0  0
 35 76  1  0  0  0  0
 35 77  1  0  0  0  0
 36 78  1  0  0  0  0
 36 79  1  0  0  0  0
 36 80  1  0  0  0  0
 37 81  1  0  0  0  0
 37 82  1  0  0  0  0
 37 83  1  0  0  0  0
 38 84  1  0  0  0  0
 38 85  1  0  0  0  0
 38 86  1  0  0  0  0
 39 87  1  0  0  0  0
 39 88  1  0  0  0  0
 39 89  1  0  0  0  0
 40 90  1  0  0  0  0
 40 91  1  0  0  0  0
 40 92  1  0  0  0  0
 41 93  1  0  0  0  0
 41 94  1  0  0  0  0
 41 95  1  0  0  0  0
 42 96  1  0  0  0  0
 42 97  1  0  0  0  0
 42 98  1  0  0  0  0
 43 99  1  0  0  0  0
 43100  1  0  0  0  0
 43101  1  0  0  0  0
 44102  1  0  0  0  0
 44103  1  0  0  0  0
 44104  1  0  0  0  0
 45105  1  0  0  0  0
 45106  1  0  0  0  0
 45107  1  0  0  0  0
 46 54  2  0  0  0  0
 46 55  1  0  0  0  0
 47108  1  0  0  0  0
 47109  1  0  0  0  0
 47110  1  0  0  0  0
 48111  1  0  0  0  0
 48112  1  0  0  0  0
 48113  1  0  0  0  0
 49114  1  0  0  0  0
 49115  1  0  0  0  0
 49116  1  0  0  0  0
 51117  1  0  0  0  0
 51118  1  0  0  0  0
 51119  1  0  0  0  0
 52120  1  0  0  0  0
 52121  1  0  0  0  0
 52122  1  0  0  0  0
 53123  1  0  0  0  0
 53124  1  0  0  0  0
 53125  1  0  0  0  0
 54 57  1  0  0  0  0
 54126  1  0  0  0  0
 55 58  2  0  0  0  0
 55127  1  0  0  0  0
 56 57  2  0  0  0  0
 56 58  1  0  0  0  0
 57 59  1  0  0  0  0
 58 60  1  0  0  0  0
 59128  1  0  0  0  0
 59129  1  0  0  0  0
 59130  1  0  0  0  0
 60131  1  0  0  0  0
 60132  1  0  0  0  0
 60133  1  0  0  0  0
M  END
> <PUBCHEM_COMPOUND_CID>
118320794

> <PUBCHEM_COMPOUND_CANONICALIZED>
1

> <PUBCHEM_CACTVS_COMPLEXITY>
1410

> <PUBCHEM_CACTVS_HBOND_ACCEPTOR>
5

> <PUBCHEM_CACTVS_HBOND_DONOR>
0

> <PUBCHEM_CACTVS_ROTATABLE_BOND>
9

> <PUBCHEM_CACTVS_SUBSKEYS>
AAADcfB8OAIAAAAAAAAAAAAAAAAAASAAAAAwYMGAAAASAEgBVAAAGgAAACAADwSAmAAyDoAABRCIAiDSCAACCAAgIAAAiAEECIgMJjKENRqCOiCkwBEIqAeK6PSPoAACAAAIAABAAAQAABAAAAAAAAAAAA==

> <PUBCHEM_IUPAC_OPENEYE_NAME>
5,7-ditert-butyl-3-[3,5-dimethyl-4-[(1,3,7,9-tetratert-butyl-5-methyl-5H-benzo[d][1,3,2]benzodioxaphosphocin-11-yl)oxy]phenyl]-3H-benzofuran-2-one

> <PUBCHEM_IUPAC_CAS_NAME>
5,7-ditert-butyl-3-[3,5-dimethyl-4-[(1,3,7,9-tetratert-butyl-5-methyl-5H-benzo[d][1,3,2]benzodioxaphosphocin-11-yl)oxy]phenyl]-3H-benzofuran-2-one

> <PUBCHEM_IUPAC_NAME_MARKUP>
5,7-di<I>tert</I>-butyl-3-[3,5-dimethyl-4-[(1,3,7,9-tetra<I>tert</I>-butyl-5-methyl-5<I>H</I>-benzo[d][1,3,2]benzodioxaphosphocin-11-yl)oxy]phenyl]-3<I>H</I>-1-benzofuran-2-one

> <PUBCHEM_IUPAC_NAME>
5,7-ditert-butyl-3-[3,5-dimethyl-4-[(1,3,7,9-tetratert-butyl-5-methyl-5H-benzo[d][1,3,2]benzodioxaphosphocin-11-yl)oxy]phenyl]-3H-1-benzofuran-2-one

> <PUBCHEM_IUPAC_SYSTEMATIC_NAME>
5,7-ditert-butyl-3-[3,5-dimethyl-4-[(1,3,7,9-tetratert-butyl-5-methyl-5H-benzo[d][1,3,2]benzodioxaphosphocin-11-yl)oxy]phenyl]-3H-1-benzofuran-2-one

> <PUBCHEM_IUPAC_TRADITIONAL_NAME>
5,7-ditert-butyl-3-[3,5-dimethyl-4-[(1,3,7,9-tetratert-butyl-5-methyl-5H-benzo[d][1,3,2]benzodioxaphosphocin-11-yl)oxy]phenyl]coumaran-2-one

> <PUBCHEM_IUPAC_INCHI>
InChI=1S/C54H73O5P/c1-30-22-33(43-39-26-36(51(10,11)12)27-40(52(13,14)15)45(39)56-48(43)55)23-31(2)44(30)57-60-58-46-37(24-34(49(4,5)6)28-41(46)53(16,17)18)32(3)38-25-35(50(7,8)9)29-42(47(38)59-60)54(19,20)21/h22-29,32,43H,1-21H3

> <PUBCHEM_IUPAC_INCHIKEY>
LXQBVTPPBNWKGG-UHFFFAOYSA-N

> <PUBCHEM_XLOGP3_AA>
17.7

> <PUBCHEM_EXACT_MASS>
832.51956242

> <PUBCHEM_MOLECULAR_FORMULA>
C54H73O5P

> <PUBCHEM_MOLECULAR_WEIGHT>
833.1

> <PUBCHEM_SMILES>
CC1C2=C(C(=CC(=C2)C(C)(C)C)C(C)(C)C)OP(OC3=C1C=C(C=C3C(C)(C)C)C(C)(C)C)OC4=C(C=C(C=C4C)C5C6=C(C(=CC(=C6)C(C)(C)C)C(C)(C)C)OC5=O)C

> <PUBCHEM_OPENEYE_CAN_SMILES>
CC1C2=C(C(=CC(=C2)C(C)(C)C)C(C)(C)C)OP(OC3=C1C=C(C=C3C(C)(C)C)C(C)(C)C)OC4=C(C=C(C=C4C)C5C6=C(C(=CC(=C6)C(C)(C)C)C(C)(C)C)OC5=O)C

> <PUBCHEM_OPENEYE_ISO_SMILES>
CC1C2=C(C(=CC(=C2)C(C)(C)C)C(C)(C)C)OP(OC3=C1C=C(C=C3C(C)(C)C)C(C)(C)C)OC4=C(C=C(C=C4C)C5C6=C(C(=CC(=C6)C(C)(C)C)C(C)(C)C)OC5=O)C

> <PUBCHEM_CACTVS_TPSA>
54

> <PUBCHEM_MONOISOTOPIC_WEIGHT>
832.51956242

> <PUBCHEM_TOTAL_CHARGE>
0

> <PUBCHEM_HEAVY_ATOM_COUNT>
60

> <PUBCHEM_ATOM_DEF_STEREO_COUNT>
0

> <PUBCHEM_ATOM_UDEF_STEREO_COUNT>
1

> <PUBCHEM_BOND_DEF_STEREO_COUNT>
0

> <PUBCHEM_BOND_UDEF_STEREO_COUNT>
0

> <PUBCHEM_ISOTOPIC_ATOM_COUNT>
0

> <PUBCHEM_COMPONENT_COUNT>
1

> <PUBCHEM_CACTVS_TAUTO_COUNT>
-1

> <PUBCHEM_COORDINATE_TYPE>
1
5
255

> <PUBCHEM_BONDANNOTATIONS>
12  18  8
12  23  8
13  19  8
13  24  8
16  21  8
16  23  8
17  22  8
17  24  8
25  30  8
25  32  8
27  30  8
27  33  8
28  46  3
29  32  8
29  33  8
46  54  8
46  55  8
54  57  8
55  58  8
56  57  8
56  58  8
8  18  8
8  21  8
9  19  8
9  22  8

$$$$
