12095229
  -OEChem-04042512332D

 31 30  0     0  0  0  0  0  0999 V2000
    0.8660    0.8660    0.0000 S   0  0  0  0  0  0  0  0  0  0  0  0
    1.7320    1.3660    0.0000 O   0  0  0  0  0  0  0  0  0  0  0  0
    0.0000    0.3660    0.0000 O   0  5  0  0  0  0  0  0  0  0  0  0
    0.3660    1.7320    0.0000 O   0  0  0  0  0  0  0  0  0  0  0  0
    1.3660    0.0000    0.0000 O   0  0  0  0  0  0  0  0  0  0  0  0
    1.9073    5.9399    0.0000 N   0  0  0  0  0  0  0  0  0  0  0  0
    2.4073    7.4787    0.0000 N   0  3  0  0  0  0  0  0  0  0  0  0
    1.9073    4.9399    0.0000 C   0  0  0  0  0  0  0  0  0  0  0  0
    2.7163    6.5277    0.0000 C   0  0  0  0  0  0  0  0  0  0  0  0
    1.0983    6.5277    0.0000 C   0  0  0  0  0  0  0  0  0  0  0  0
    1.4073    7.4787    0.0000 C   0  0  0  0  0  0  0  0  0  0  0  0
    1.0413    4.4399    0.0000 C   0  0  0  0  0  0  0  0  0  0  0  0
    2.9951    8.2878    0.0000 C   0  0  0  0  0  0  0  0  0  0  0  0
    2.5981    0.8660    0.0000 C   0  0  0  0  0  0  0  0  0  0  0  0
    3.4641    1.3660    0.0000 C   0  0  0  0  0  0  0  0  0  0  0  0
    2.1194    4.3573    0.0000 H   0  0  0  0  0  0  0  0  0  0  0  0
    2.5179    5.0476    0.0000 H   0  0  0  0  0  0  0  0  0  0  0  0
    3.3060    6.3361    0.0000 H   0  0  0  0  0  0  0  0  0  0  0  0
    0.5086    6.3361    0.0000 H   0  0  0  0  0  0  0  0  0  0  0  0
    1.0429    7.9803    0.0000 H   0  0  0  0  0  0  0  0  0  0  0  0
    0.7313    4.9768    0.0000 H   0  0  0  0  0  0  0  0  0  0  0  0
    0.5044    4.1299    0.0000 H   0  0  0  0  0  0  0  0  0  0  0  0
    1.3513    3.9030    0.0000 H   0  0  0  0  0  0  0  0  0  0  0  0
    3.4967    7.9233    0.0000 H   0  0  0  0  0  0  0  0  0  0  0  0
    3.3595    8.7894    0.0000 H   0  0  0  0  0  0  0  0  0  0  0  0
    2.4935    8.6522    0.0000 H   0  0  0  0  0  0  0  0  0  0  0  0
    2.1996    0.3911    0.0000 H   0  0  0  0  0  0  0  0  0  0  0  0
    2.9966    0.3911    0.0000 H   0  0  0  0  0  0  0  0  0  0  0  0
    3.7741    0.8291    0.0000 H   0  0  0  0  0  0  0  0  0  0  0  0
    4.0010    1.6760    0.0000 H   0  0  0  0  0  0  0  0  0  0  0  0
    3.1541    1.9030    0.0000 H   0  0  0  0  0  0  0  0  0  0  0  0
  1  2  1  0  0  0  0
  1  3  1  0  0  0  0
  1  4  2  0  0  0  0
  1  5  2  0  0  0  0
  2 14  1  0  0  0  0
  6  8  1  0  0  0  0
  6  9  1  0  0  0  0
  6 10  1  0  0  0  0
  7  9  2  0  0  0  0
  7 11  1  0  0  0  0
  7 13  1  0  0  0  0
  8 12  1  0  0  0  0
  8 16  1  0  0  0  0
  8 17  1  0  0  0  0
  9 18  1  0  0  0  0
 10 11  2  0  0  0  0
 10 19  1  0  0  0  0
 11 20  1  0  0  0  0
 12 21  1  0  0  0  0
 12 22  1  0  0  0  0
 12 23  1  0  0  0  0
 13 24  1  0  0  0  0
 13 25  1  0  0  0  0
 13 26  1  0  0  0  0
 14 15  1  0  0  0  0
 14 27  1  0  0  0  0
 14 28  1  0  0  0  0
 15 29  1  0  0  0  0
 15 30  1  0  0  0  0
 15 31  1  0  0  0  0
M  CHG  2   3  -1   7   1
M  END
> <PUBCHEM_COMPOUND_CID>
12095229

> <PUBCHEM_COMPOUND_CANONICALIZED>
1

> <PUBCHEM_CACTVS_COMPLEXITY>
177

> <PUBCHEM_CACTVS_HBOND_ACCEPTOR>
4

> <PUBCHEM_CACTVS_HBOND_DONOR>
0

> <PUBCHEM_CACTVS_ROTATABLE_BOND>
2

> <PUBCHEM_CACTVS_SUBSKEYS>
AAADceBzOABAAAAAAAAAAAAAAAAAAWAAAAAAAAAAAAAAAAABgAAAHgAAAAAAAADhggYvkBcMEACgABAnZDAAgC0REqAJQAAYMACASAAACAAQAAAIAAKAACAAAAAAAAAAAAAAAAAAAAAAAAAAAAAAAAAAAA==

> <PUBCHEM_IUPAC_OPENEYE_NAME>
1-ethyl-3-methyl-imidazol-3-ium;ethyl sulfate

> <PUBCHEM_IUPAC_CAS_NAME>
1-ethyl-3-methylimidazol-3-ium;ethyl sulfate

> <PUBCHEM_IUPAC_NAME_MARKUP>
1-ethyl-3-methylimidazol-3-ium;ethyl sulfate

> <PUBCHEM_IUPAC_NAME>
1-ethyl-3-methylimidazol-3-ium;ethyl sulfate

> <PUBCHEM_IUPAC_SYSTEMATIC_NAME>
1-ethyl-3-methyl-imidazol-3-ium;ethyl sulfate

> <PUBCHEM_IUPAC_TRADITIONAL_NAME>
1-ethyl-3-methyl-imidazol-3-ium;ethyl sulfate

> <PUBCHEM_IUPAC_INCHI>
InChI=1S/C6H11N2.C2H6O4S/c1-3-8-5-4-7(2)6-8;1-2-6-7(3,4)5/h4-6H,3H2,1-2H3;2H2,1H3,(H,3,4,5)/q+1;/p-1

> <PUBCHEM_IUPAC_INCHIKEY>
VRFOKYHDLYBVAL-UHFFFAOYSA-M

> <PUBCHEM_EXACT_MASS>
236.08307817

> <PUBCHEM_MOLECULAR_FORMULA>
C8H16N2O4S

> <PUBCHEM_MOLECULAR_WEIGHT>
236.29

> <PUBCHEM_SMILES>
CCN1C=C[N+](=C1)C.CCOS(=O)(=O)[O-]

> <PUBCHEM_OPENEYE_CAN_SMILES>
CCN1C=C[N+](=C1)C.CCOS(=O)(=O)[O-]

> <PUBCHEM_OPENEYE_ISO_SMILES>
CCN1C=C[N+](=C1)C.CCOS(=O)(=O)[O-]

> <PUBCHEM_CACTVS_TPSA>
83.6

> <PUBCHEM_MONOISOTOPIC_WEIGHT>
236.08307817

> <PUBCHEM_TOTAL_CHARGE>
0

> <PUBCHEM_HEAVY_ATOM_COUNT>
15

> <PUBCHEM_ATOM_DEF_STEREO_COUNT>
0

> <PUBCHEM_ATOM_UDEF_STEREO_COUNT>
0

> <PUBCHEM_BOND_DEF_STEREO_COUNT>
0

> <PUBCHEM_BOND_UDEF_STEREO_COUNT>
0

> <PUBCHEM_ISOTOPIC_ATOM_COUNT>
0

> <PUBCHEM_COMPONENT_COUNT>
2

> <PUBCHEM_CACTVS_TAUTO_COUNT>
-1

> <PUBCHEM_COORDINATE_TYPE>
1
5
255

> <PUBCHEM_BONDANNOTATIONS>
10  11  8
6  10  8
6  9  8
7  11  8
7  9  8

$$$$
