122891
  -OEChem-04042505502D

124127  0     0  0  0  0  0  0999 V2000
    7.3038   -0.2658    0.0000 O   0  0  0  0  0  0  0  0  0  0  0  0
    9.9492   -0.3070    0.0000 O   0  0  0  0  0  0  0  0  0  0  0  0
    4.5981   -4.5665    0.0000 O   0  0  0  0  0  0  0  0  0  0  0  0
    4.5981    3.4335    0.0000 O   0  0  0  0  0  0  0  0  0  0  0  0
   15.4852    3.2077    0.0000 O   0  0  0  0  0  0  0  0  0  0  0  0
   14.9922   -2.4276    0.0000 O   0  0  0  0  0  0  0  0  0  0  0  0
    6.7115   -1.8933    0.0000 O   0  0  0  0  0  0  0  0  0  0  0  0
   10.5416    1.3206    0.0000 O   0  0  0  0  0  0  0  0  0  0  0  0
    4.5981   -0.5665    0.0000 C   0  0  0  0  0  0  0  0  0  0  0  0
   12.4210    0.6365    0.0000 C   0  0  0  0  0  0  0  0  0  0  0  0
    4.5981   -1.5665    0.0000 C   0  0  0  0  0  0  0  0  0  0  0  0
    4.5981    0.4335    0.0000 C   0  0  0  0  0  0  0  0  0  0  0  0
   13.1871    1.2793    0.0000 C   0  0  0  0  0  0  0  0  0  0  0  0
   13.0638   -0.1295    0.0000 C   0  0  0  0  0  0  0  0  0  0  0  0
    5.5981   -0.5665    0.0000 C   0  0  0  0  0  0  0  0  0  0  0  0
   11.6550   -0.0063    0.0000 C   0  0  0  0  0  0  0  0  0  0  0  0
    2.8660   -3.5665    0.0000 C   0  0  0  0  0  0  0  0  0  0  0  0
    6.3301    2.4335    0.0000 C   0  0  0  0  0  0  0  0  0  0  0  0
   13.6058    3.8917    0.0000 C   0  0  0  0  0  0  0  0  0  0  0  0
   13.0226   -2.7749    0.0000 C   0  0  0  0  0  0  0  0  0  0  0  0
    3.5981   -0.5665    0.0000 C   0  0  0  0  0  0  0  0  0  0  0  0
   11.7782    1.4026    0.0000 C   0  0  0  0  0  0  0  0  0  0  0  0
    3.7320   -3.0665    0.0000 C   0  0  0  0  0  0  0  0  0  0  0  0
    5.4641    1.9335    0.0000 C   0  0  0  0  0  0  0  0  0  0  0  0
   13.7795    2.9069    0.0000 C   0  0  0  0  0  0  0  0  0  0  0  0
   13.3646   -1.8352    0.0000 C   0  0  0  0  0  0  0  0  0  0  0  0
    3.7320   -2.0665    0.0000 C   0  0  0  0  0  0  0  0  0  0  0  0
    5.4641    0.9335    0.0000 C   0  0  0  0  0  0  0  0  0  0  0  0
   13.0134    2.2641    0.0000 C   0  0  0  0  0  0  0  0  0  0  0  0
   12.7218   -1.0692    0.0000 C   0  0  0  0  0  0  0  0  0  0  0  0
    5.4641   -2.0665    0.0000 C   0  0  0  0  0  0  0  0  0  0  0  0
    3.7320    0.9335    0.0000 C   0  0  0  0  0  0  0  0  0  0  0  0
   14.1268    0.9373    0.0000 C   0  0  0  0  0  0  0  0  0  0  0  0
   14.0486    0.0441    0.0000 C   0  0  0  0  0  0  0  0  0  0  0  0
    4.5981   -3.5665    0.0000 C   0  0  0  0  0  0  0  0  0  0  0  0
    4.5981    2.4335    0.0000 C   0  0  0  0  0  0  0  0  0  0  0  0
   14.7192    2.5649    0.0000 C   0  0  0  0  0  0  0  0  0  0  0  0
   14.3494   -1.6616    0.0000 C   0  0  0  0  0  0  0  0  0  0  0  0
    6.5378   -0.9086    0.0000 C   0  0  0  0  0  0  0  0  0  0  0  0
   10.7153    0.3358    0.0000 C   0  0  0  0  0  0  0  0  0  0  0  0
    2.0000   -4.0665    0.0000 C   0  0  0  0  0  0  0  0  0  0  0  0
    2.3660   -2.7005    0.0000 C   0  0  0  0  0  0  0  0  0  0  0  0
    3.3660   -4.4326    0.0000 C   0  0  0  0  0  0  0  0  0  0  0  0
    7.1962    2.9335    0.0000 C   0  0  0  0  0  0  0  0  0  0  0  0
    6.8301    1.5674    0.0000 C   0  0  0  0  0  0  0  0  0  0  0  0
    5.8301    3.2995    0.0000 C   0  0  0  0  0  0  0  0  0  0  0  0
   13.4322    4.8765    0.0000 C   0  0  0  0  0  0  0  0  0  0  0  0
   14.5906    4.0654    0.0000 C   0  0  0  0  0  0  0  0  0  0  0  0
   12.6210    3.7181    0.0000 C   0  0  0  0  0  0  0  0  0  0  0  0
   12.6805   -3.7146    0.0000 C   0  0  0  0  0  0  0  0  0  0  0  0
   13.9623   -3.1170    0.0000 C   0  0  0  0  0  0  0  0  0  0  0  0
   12.0829   -2.4329    0.0000 C   0  0  0  0  0  0  0  0  0  0  0  0
    5.4641   -3.0665    0.0000 C   0  0  0  0  0  0  0  0  0  0  0  0
    3.7320    1.9335    0.0000 C   0  0  0  0  0  0  0  0  0  0  0  0
   14.8928    1.5801    0.0000 C   0  0  0  0  0  0  0  0  0  0  0  0
   14.6914   -0.7219    0.0000 C   0  0  0  0  0  0  0  0  0  0  0  0
    8.2435   -0.6078    0.0000 C   0  0  0  0  0  0  0  0  0  0  0  0
    9.0096    0.0350    0.0000 C   0  0  0  0  0  0  0  0  0  0  0  0
    6.0236   -0.1156    0.0000 H   0  0  0  0  0  0  0  0  0  0  0  0
    5.4904   -1.1771    0.0000 H   0  0  0  0  0  0  0  0  0  0  0  0
   11.3450   -0.5432    0.0000 H   0  0  0  0  0  0  0  0  0  0  0  0
   12.1299   -0.4048    0.0000 H   0  0  0  0  0  0  0  0  0  0  0  0
    3.5981    0.0535    0.0000 H   0  0  0  0  0  0  0  0  0  0  0  0
    2.9781   -0.5665    0.0000 H   0  0  0  0  0  0  0  0  0  0  0  0
    3.5981   -1.1865    0.0000 H   0  0  0  0  0  0  0  0  0  0  0  0
   12.2532    1.8011    0.0000 H   0  0  0  0  0  0  0  0  0  0  0  0
   11.3797    1.8775    0.0000 H   0  0  0  0  0  0  0  0  0  0  0  0
   11.3033    1.0041    0.0000 H   0  0  0  0  0  0  0  0  0  0  0  0
    3.1951   -1.7565    0.0000 H   0  0  0  0  0  0  0  0  0  0  0  0
    6.0010    0.6235    0.0000 H   0  0  0  0  0  0  0  0  0  0  0  0
   12.4308    2.4762    0.0000 H   0  0  0  0  0  0  0  0  0  0  0  0
   12.1112   -1.1769    0.0000 H   0  0  0  0  0  0  0  0  0  0  0  0
    6.0010   -1.7565    0.0000 H   0  0  0  0  0  0  0  0  0  0  0  0
    3.1951    0.6235    0.0000 H   0  0  0  0  0  0  0  0  0  0  0  0
   14.2344    0.3267    0.0000 H   0  0  0  0  0  0  0  0  0  0  0  0
   14.2607    0.6267    0.0000 H   0  0  0  0  0  0  0  0  0  0  0  0
    1.6900   -3.5296    0.0000 H   0  0  0  0  0  0  0  0  0  0  0  0
    1.4631   -4.3765    0.0000 H   0  0  0  0  0  0  0  0  0  0  0  0
    2.3100   -4.6035    0.0000 H   0  0  0  0  0  0  0  0  0  0  0  0
    2.9030   -2.3905    0.0000 H   0  0  0  0  0  0  0  0  0  0  0  0
    2.0560   -2.1636    0.0000 H   0  0  0  0  0  0  0  0  0  0  0  0
    1.8291   -3.0105    0.0000 H   0  0  0  0  0  0  0  0  0  0  0  0
    2.8291   -4.7426    0.0000 H   0  0  0  0  0  0  0  0  0  0  0  0
    3.6760   -4.9695    0.0000 H   0  0  0  0  0  0  0  0  0  0  0  0
    3.9030   -4.1226    0.0000 H   0  0  0  0  0  0  0  0  0  0  0  0
    7.5062    2.3965    0.0000 H   0  0  0  0  0  0  0  0  0  0  0  0
    7.7331    3.2435    0.0000 H   0  0  0  0  0  0  0  0  0  0  0  0
    6.8862    3.4704    0.0000 H   0  0  0  0  0  0  0  0  0  0  0  0
    6.2932    1.2574    0.0000 H   0  0  0  0  0  0  0  0  0  0  0  0
    7.1401    1.0305    0.0000 H   0  0  0  0  0  0  0  0  0  0  0  0
    7.3671    1.8774    0.0000 H   0  0  0  0  0  0  0  0  0  0  0  0
    6.3671    3.6095    0.0000 H   0  0  0  0  0  0  0  0  0  0  0  0
    5.5201    3.8364    0.0000 H   0  0  0  0  0  0  0  0  0  0  0  0
    5.2932    2.9895    0.0000 H   0  0  0  0  0  0  0  0  0  0  0  0
   14.0427    4.9842    0.0000 H   0  0  0  0  0  0  0  0  0  0  0  0
   13.3245    5.4871    0.0000 H   0  0  0  0  0  0  0  0  0  0  0  0
   12.8216    4.7689    0.0000 H   0  0  0  0  0  0  0  0  0  0  0  0
   14.6983    3.4548    0.0000 H   0  0  0  0  0  0  0  0  0  0  0  0
   15.2012    4.1730    0.0000 H   0  0  0  0  0  0  0  0  0  0  0  0
   14.4830    4.6760    0.0000 H   0  0  0  0  0  0  0  0  0  0  0  0
   12.5133    4.3287    0.0000 H   0  0  0  0  0  0  0  0  0  0  0  0
   12.0104    3.6104    0.0000 H   0  0  0  0  0  0  0  0  0  0  0  0
   12.7287    3.1075    0.0000 H   0  0  0  0  0  0  0  0  0  0  0  0
   12.0979   -3.5026    0.0000 H   0  0  0  0  0  0  0  0  0  0  0  0
   12.4685   -4.2972    0.0000 H   0  0  0  0  0  0  0  0  0  0  0  0
   13.2631   -3.9267    0.0000 H   0  0  0  0  0  0  0  0  0  0  0  0
   13.7502   -3.6996    0.0000 H   0  0  0  0  0  0  0  0  0  0  0  0
   14.5449   -3.3290    0.0000 H   0  0  0  0  0  0  0  0  0  0  0  0
   14.1743   -2.5344    0.0000 H   0  0  0  0  0  0  0  0  0  0  0  0
   12.2949   -1.8503    0.0000 H   0  0  0  0  0  0  0  0  0  0  0  0
   11.5003   -2.2209    0.0000 H   0  0  0  0  0  0  0  0  0  0  0  0
   11.8708   -3.0155    0.0000 H   0  0  0  0  0  0  0  0  0  0  0  0
    6.0010   -3.3765    0.0000 H   0  0  0  0  0  0  0  0  0  0  0  0
    3.1951    2.2435    0.0000 H   0  0  0  0  0  0  0  0  0  0  0  0
   15.4754    1.3680    0.0000 H   0  0  0  0  0  0  0  0  0  0  0  0
   15.3020   -0.6142    0.0000 H   0  0  0  0  0  0  0  0  0  0  0  0
    7.9335   -1.1447    0.0000 H   0  0  0  0  0  0  0  0  0  0  0  0
    8.7184   -1.0063    0.0000 H   0  0  0  0  0  0  0  0  0  0  0  0
    9.3196    0.5719    0.0000 H   0  0  0  0  0  0  0  0  0  0  0  0
    8.5346    0.4335    0.0000 H   0  0  0  0  0  0  0  0  0  0  0  0
    5.1350   -4.8765    0.0000 H   0  0  0  0  0  0  0  0  0  0  0  0
    4.0611    3.7435    0.0000 H   0  0  0  0  0  0  0  0  0  0  0  0
   16.0678    2.9956    0.0000 H   0  0  0  0  0  0  0  0  0  0  0  0
   15.6028   -2.3200    0.0000 H   0  0  0  0  0  0  0  0  0  0  0  0
  1 39  1  0  0  0  0
  1 57  1  0  0  0  0
  2 40  1  0  0  0  0
  2 58  1  0  0  0  0
  3 35  1  0  0  0  0
  3121  1  0  0  0  0
  4 36  1  0  0  0  0
  4122  1  0  0  0  0
  5 37  1  0  0  0  0
  5123  1  0  0  0  0
  6 38  1  0  0  0  0
  6124  1  0  0  0  0
  7 39  2  0  0  0  0
  8 40  2  0  0  0  0
  9 11  1  0  0  0  0
  9 12  1  0  0  0  0
  9 15  1  0  0  0  0
  9 21  1  0  0  0  0
 10 13  1  0  0  0  0
 10 14  1  0  0  0  0
 10 16  1  0  0  0  0
 10 22  1  0  0  0  0
 11 27  2  0  0  0  0
 11 31  1  0  0  0  0
 12 28  2  0  0  0  0
 12 32  1  0  0  0  0
 13 29  2  0  0  0  0
 13 33  1  0  0  0  0
 14 30  2  0  0  0  0
 14 34  1  0  0  0  0
 15 39  1  0  0  0  0
 15 59  1  0  0  0  0
 15 60  1  0  0  0  0
 16 40  1  0  0  0  0
 16 61  1  0  0  0  0
 16 62  1  0  0  0  0
 17 23  1  0  0  0  0
 17 41  1  0  0  0  0
 17 42  1  0  0  0  0
 17 43  1  0  0  0  0
 18 24  1  0  0  0  0
 18 44  1  0  0  0  0
 18 45  1  0  0  0  0
 18 46  1  0  0  0  0
 19 25  1  0  0  0  0
 19 47  1  0  0  0  0
 19 48  1  0  0  0  0
 19 49  1  0  0  0  0
 20 26  1  0  0  0  0
 20 50  1  0  0  0  0
 20 51  1  0  0  0  0
 20 52  1  0  0  0  0
 21 63  1  0  0  0  0
 21 64  1  0  0  0  0
 21 65  1  0  0  0  0
 22 66  1  0  0  0  0
 22 67  1  0  0  0  0
 22 68  1  0  0  0  0
 23 27  1  0  0  0  0
 23 35  2  0  0  0  0
 24 28  1  0  0  0  0
 24 36  2  0  0  0  0
 25 29  1  0  0  0  0
 25 37  2  0  0  0  0
 26 30  1  0  0  0  0
 26 38  2  0  0  0  0
 27 69  1  0  0  0  0
 28 70  1  0  0  0  0
 29 71  1  0  0  0  0
 30 72  1  0  0  0  0
 31 53  2  0  0  0  0
 31 73  1  0  0  0  0
 32 54  2  0  0  0  0
 32 74  1  0  0  0  0
 33 55  2  0  0  0  0
 33 75  1  0  0  0  0
 34 56  2  0  0  0  0
 34 76  1  0  0  0  0
 35 53  1  0  0  0  0
 36 54  1  0  0  0  0
 37 55  1  0  0  0  0
 38 56  1  0  0  0  0
 41 77  1  0  0  0  0
 41 78  1  0  0  0  0
 41 79  1  0  0  0  0
 42 80  1  0  0  0  0
 42 81  1  0  0  0  0
 42 82  1  0  0  0  0
 43 83  1  0  0  0  0
 43 84  1  0  0  0  0
 43 85  1  0  0  0  0
 44 86  1  0  0  0  0
 44 87  1  0  0  0  0
 44 88  1  0  0  0  0
 45 89  1  0  0  0  0
 45 90  1  0  0  0  0
 45 91  1  0  0  0  0
 46 92  1  0  0  0  0
 46 93  1  0  0  0  0
 46 94  1  0  0  0  0
 47 95  1  0  0  0  0
 47 96  1  0  0  0  0
 47 97  1  0  0  0  0
 48 98  1  0  0  0  0
 48 99  1  0  0  0  0
 48100  1  0  0  0  0
 49101  1  0  0  0  0
 49102  1  0  0  0  0
 49103  1  0  0  0  0
 50104  1  0  0  0  0
 50105  1  0  0  0  0
 50106  1  0  0  0  0
 51107  1  0  0  0  0
 51108  1  0  0  0  0
 51109  1  0  0  0  0
 52110  1  0  0  0  0
 52111  1  0  0  0  0
 52112  1  0  0  0  0
 53113  1  0  0  0  0
 54114  1  0  0  0  0
 55115  1  0  0  0  0
 56116  1  0  0  0  0
 57 58  1  0  0  0  0
 57117  1  0  0  0  0
 57118  1  0  0  0  0
 58119  1  0  0  0  0
 58120  1  0  0  0  0
M  END
> <PUBCHEM_COMPOUND_CID>
122891

> <PUBCHEM_COMPOUND_CANONICALIZED>
1

> <PUBCHEM_CACTVS_COMPLEXITY>
1170

> <PUBCHEM_CACTVS_HBOND_ACCEPTOR>
8

> <PUBCHEM_CACTVS_HBOND_DONOR>
4

> <PUBCHEM_CACTVS_ROTATABLE_BOND>
17

> <PUBCHEM_CACTVS_SUBSKEYS>
AAADcfB8PAAAAAAAAAAAAAAAAAAAAAAAAAAwYMGAAAAAAAABVAAAGgAACAAADgSgmAIyDoAABgCIAiDSCAACAAAgIAAIiAEGCIgJJjKCERKCcAAkwBEKmAeIyPCPoAACAAAIAABAAAQAABAAAAAAAAAAAA==

> <PUBCHEM_IUPAC_OPENEYE_NAME>
2-[3,3-bis(3-tert-butyl-4-hydroxy-phenyl)butanoyloxy]ethyl 3,3-bis(3-tert-butyl-4-hydroxy-phenyl)butanoate

> <PUBCHEM_IUPAC_CAS_NAME>
3,3-bis(3-tert-butyl-4-hydroxyphenyl)butanoic acid 2-[3,3-bis(3-tert-butyl-4-hydroxyphenyl)-1-oxobutoxy]ethyl ester

> <PUBCHEM_IUPAC_NAME_MARKUP>
2-[3,3-bis(3-<I>tert</I>-butyl-4-hydroxyphenyl)butanoyloxy]ethyl 3,3-bis(3-<I>tert</I>-butyl-4-hydroxyphenyl)butanoate

> <PUBCHEM_IUPAC_NAME>
2-[3,3-bis(3-tert-butyl-4-hydroxyphenyl)butanoyloxy]ethyl 3,3-bis(3-tert-butyl-4-hydroxyphenyl)butanoate

> <PUBCHEM_IUPAC_SYSTEMATIC_NAME>
2-[3,3-bis(3-tert-butyl-4-oxidanyl-phenyl)butanoyloxy]ethyl 3,3-bis(3-tert-butyl-4-oxidanyl-phenyl)butanoate

> <PUBCHEM_IUPAC_TRADITIONAL_NAME>
3,3-bis(3-tert-butyl-4-hydroxy-phenyl)butyric acid 2-[3,3-bis(3-tert-butyl-4-hydroxy-phenyl)butanoyloxy]ethyl ester

> <PUBCHEM_IUPAC_INCHI>
InChI=1S/C50H66O8/c1-45(2,3)35-25-31(15-19-39(35)51)49(13,32-16-20-40(52)36(26-32)46(4,5)6)29-43(55)57-23-24-58-44(56)30-50(14,33-17-21-41(53)37(27-33)47(7,8)9)34-18-22-42(54)38(28-34)48(10,11)12/h15-22,25-28,51-54H,23-24,29-30H2,1-14H3

> <PUBCHEM_IUPAC_INCHIKEY>
JOWXNCPELQZFHF-UHFFFAOYSA-N

> <PUBCHEM_XLOGP3_AA>
13.1

> <PUBCHEM_EXACT_MASS>
794.47576906

> <PUBCHEM_MOLECULAR_FORMULA>
C50H66O8

> <PUBCHEM_MOLECULAR_WEIGHT>
795.1

> <PUBCHEM_SMILES>
CC(C)(C)C1=C(C=CC(=C1)C(C)(CC(=O)OCCOC(=O)CC(C)(C2=CC(=C(C=C2)O)C(C)(C)C)C3=CC(=C(C=C3)O)C(C)(C)C)C4=CC(=C(C=C4)O)C(C)(C)C)O

> <PUBCHEM_OPENEYE_CAN_SMILES>
CC(C)(C)C1=C(C=CC(=C1)C(C)(CC(=O)OCCOC(=O)CC(C)(C2=CC(=C(C=C2)O)C(C)(C)C)C3=CC(=C(C=C3)O)C(C)(C)C)C4=CC(=C(C=C4)O)C(C)(C)C)O

> <PUBCHEM_OPENEYE_ISO_SMILES>
CC(C)(C)C1=C(C=CC(=C1)C(C)(CC(=O)OCCOC(=O)CC(C)(C2=CC(=C(C=C2)O)C(C)(C)C)C3=CC(=C(C=C3)O)C(C)(C)C)C4=CC(=C(C=C4)O)C(C)(C)C)O

> <PUBCHEM_CACTVS_TPSA>
134

> <PUBCHEM_MONOISOTOPIC_WEIGHT>
794.47576906

> <PUBCHEM_TOTAL_CHARGE>
0

> <PUBCHEM_HEAVY_ATOM_COUNT>
58

> <PUBCHEM_ATOM_DEF_STEREO_COUNT>
0

> <PUBCHEM_ATOM_UDEF_STEREO_COUNT>
0

> <PUBCHEM_BOND_DEF_STEREO_COUNT>
0

> <PUBCHEM_BOND_UDEF_STEREO_COUNT>
0

> <PUBCHEM_ISOTOPIC_ATOM_COUNT>
0

> <PUBCHEM_COMPONENT_COUNT>
1

> <PUBCHEM_CACTVS_TAUTO_COUNT>
-1

> <PUBCHEM_COORDINATE_TYPE>
1
5
255

> <PUBCHEM_BONDANNOTATIONS>
11  27  8
11  31  8
12  28  8
12  32  8
13  29  8
13  33  8
14  30  8
14  34  8
23  27  8
23  35  8
24  28  8
24  36  8
25  29  8
25  37  8
26  30  8
26  38  8
31  53  8
32  54  8
33  55  8
34  56  8
35  53  8
36  54  8
37  55  8
38  56  8

$$$$
