123459
  -OEChem-04042505432D

 58 57  0     1  0  0  0  0  0999 V2000
    6.7321    1.0180    0.0000 F   0  0  0  0  0  0  0  0  0  0  0  0
    8.3302    1.5180    0.0000 F   0  0  0  0  0  0  0  0  0  0  0  0
    7.2718    3.3688    0.0000 F   0  0  0  0  0  0  0  0  0  0  0  0
    7.5981    1.5180    0.0000 F   0  0  0  0  0  0  0  0  0  0  0  0
   10.6359    2.2260    0.0000 F   0  0  0  0  0  0  0  0  0  0  0  0
    9.1962    1.0180    0.0000 F   0  0  0  0  0  0  0  0  0  0  0  0
    4.3661    1.3840    0.0000 F   0  0  0  0  0  0  0  0  0  0  0  0
    5.3661   -0.6160    0.0000 F   0  0  0  0  0  0  0  0  0  0  0  0
    6.3661    0.3840    0.0000 F   0  0  0  0  0  0  0  0  0  0  0  0
    9.5622    0.3840    0.0000 F   0  0  0  0  0  0  0  0  0  0  0  0
    5.2321    3.6160    0.0000 F   0  0  0  0  0  0  0  0  0  0  0  0
    4.8661    2.2500    0.0000 F   0  0  0  0  0  0  0  0  0  0  0  0
    6.0741    3.6897    0.0000 F   0  0  0  0  0  0  0  0  0  0  0  0
    9.8302    4.1160    0.0000 F   0  0  0  0  0  0  0  0  0  0  0  0
    8.4642    3.7500    0.0000 F   0  0  0  0  0  0  0  0  0  0  0  0
   10.3150    3.4236    0.0000 F   0  0  0  0  0  0  0  0  0  0  0  0
   11.3283   -1.2588    0.0000 F   0  0  0  0  0  0  0  0  0  0  0  0
    9.5622   -0.6160    0.0000 F   0  0  0  0  0  0  0  0  0  0  0  0
    2.6341    1.3841    0.0000 F   0  0  0  0  0  0  0  0  0  0  0  0
    3.0000    0.0179    0.0000 F   0  0  0  0  0  0  0  0  0  0  0  0
    3.5001    1.8840    0.0000 F   0  0  0  0  0  0  0  0  0  0  0  0
   12.5622    0.3840    0.0000 F   0  0  0  0  0  0  0  0  0  0  0  0
   11.5622    1.3840    0.0000 F   0  0  0  0  0  0  0  0  0  0  0  0
   12.2051   -0.3820    0.0000 F   0  0  0  0  0  0  0  0  0  0  0  0
    4.7322   -1.9820    0.0000 F   0  0  0  0  0  0  0  0  0  0  0  0
    3.0000   -0.9821    0.0000 F   0  0  0  0  0  0  0  0  0  0  0  0
    4.2321   -2.8481    0.0000 F   0  0  0  0  0  0  0  0  0  0  0  0
    2.5000   -1.8480    0.0000 F   0  0  0  0  0  0  0  0  0  0  0  0
    2.3660   -4.0801    0.0000 F   0  0  0  0  0  0  0  0  0  0  0  0
    3.7321   -3.7141    0.0000 F   0  0  0  0  0  0  0  0  0  0  0  0
    2.0000   -2.7140    0.0000 F   0  0  0  0  0  0  0  0  0  0  0  0
   12.2943   -1.6160    0.0000 F   0  0  0  0  0  0  0  0  0  0  0  0
   11.4283   -4.1160    0.0000 F   0  0  0  0  0  0  0  0  0  0  0  0
   12.4283   -3.1160    0.0000 F   0  0  0  0  0  0  0  0  0  0  0  0
   10.4283   -3.1160    0.0000 F   0  0  0  0  0  0  0  0  0  0  0  0
    7.9642    2.8840    0.0000 O   0  0  0  0  0  0  0  0  0  0  0  0
    5.3661    1.3840    0.0000 O   0  0  0  0  0  0  0  0  0  0  0  0
   10.5622    1.3840    0.0000 O   0  0  0  0  0  0  0  0  0  0  0  0
    4.3661   -0.6160    0.0000 O   0  0  0  0  0  0  0  0  0  0  0  0
   10.5622   -1.6160    0.0000 O   0  0  0  0  0  0  0  0  0  0  0  0
    6.2321    1.8840    0.0000 C   0  0  3  0  0  0  0  0  0  0  0  0
    8.8302    2.3840    0.0000 C   0  0  3  0  0  0  0  0  0  0  0  0
    7.0981    2.3840    0.0000 C   0  0  0  0  0  0  0  0  0  0  0  0
    9.6962    1.8840    0.0000 C   0  0  0  0  0  0  0  0  0  0  0  0
    4.3661    0.3840    0.0000 C   0  0  3  0  0  0  0  0  0  0  0  0
    5.3661    0.3840    0.0000 C   0  0  0  0  0  0  0  0  0  0  0  0
   10.5622    0.3840    0.0000 C   0  0  3  0  0  0  0  0  0  0  0  0
    5.7321    2.7500    0.0000 C   0  0  0  0  0  0  0  0  0  0  0  0
    9.3302    3.2500    0.0000 C   0  0  0  0  0  0  0  0  0  0  0  0
   10.5622   -0.6160    0.0000 C   0  0  0  0  0  0  0  0  0  0  0  0
    3.5001    0.8841    0.0000 C   0  0  0  0  0  0  0  0  0  0  0  0
   11.5622    0.3840    0.0000 C   0  0  0  0  0  0  0  0  0  0  0  0
    3.8660   -1.4820    0.0000 C   0  0  0  0  0  0  0  0  0  0  0  0
    3.3660   -2.3481    0.0000 C   0  0  0  0  0  0  0  0  0  0  0  0
    2.8660   -3.2141    0.0000 C   0  0  0  0  0  0  0  0  0  0  0  0
   11.4283   -2.1160    0.0000 C   0  0  3  0  0  0  0  0  0  0  0  0
   11.4283   -3.1160    0.0000 C   0  0  0  0  0  0  0  0  0  0  0  0
   11.4283   -1.4960    0.0000 H   0  0  0  0  0  0  0  0  0  0  0  0
  1 41  1  0  0  0  0
  2 42  1  0  0  0  0
  3 43  1  0  0  0  0
  4 43  1  0  0  0  0
  5 44  1  0  0  0  0
  6 44  1  0  0  0  0
  7 45  1  0  0  0  0
  8 46  1  0  0  0  0
  9 46  1  0  0  0  0
 10 47  1  0  0  0  0
 11 48  1  0  0  0  0
 12 48  1  0  0  0  0
 13 48  1  0  0  0  0
 14 49  1  0  0  0  0
 15 49  1  0  0  0  0
 16 49  1  0  0  0  0
 17 50  1  0  0  0  0
 18 50  1  0  0  0  0
 19 51  1  0  0  0  0
 20 51  1  0  0  0  0
 21 51  1  0  0  0  0
 22 52  1  0  0  0  0
 23 52  1  0  0  0  0
 24 52  1  0  0  0  0
 25 53  1  0  0  0  0
 26 53  1  0  0  0  0
 27 54  1  0  0  0  0
 28 54  1  0  0  0  0
 29 55  1  0  0  0  0
 30 55  1  0  0  0  0
 31 55  1  0  0  0  0
 32 56  1  0  0  0  0
 33 57  1  0  0  0  0
 34 57  1  0  0  0  0
 35 57  1  0  0  0  0
 36 42  1  0  0  0  0
 36 43  1  0  0  0  0
 37 41  1  0  0  0  0
 37 46  1  0  0  0  0
 38 44  1  0  0  0  0
 38 47  1  0  0  0  0
 39 45  1  0  0  0  0
 39 53  1  0  0  0  0
 40 50  1  0  0  0  0
 40 56  1  0  0  0  0
 41 43  1  0  0  0  0
 41 48  1  0  0  0  0
 42 44  1  0  0  0  0
 42 49  1  0  0  0  0
 45 46  1  0  0  0  0
 45 51  1  0  0  0  0
 47 50  1  0  0  0  0
 47 52  1  0  0  0  0
 53 54  1  0  0  0  0
 54 55  1  0  0  0  0
 56 57  1  0  0  0  0
 56 58  1  0  0  0  0
M  END
> <PUBCHEM_COMPOUND_CID>
123459

> <PUBCHEM_COMPOUND_CANONICALIZED>
1

> <PUBCHEM_CACTVS_COMPLEXITY>
1380

> <PUBCHEM_CACTVS_HBOND_ACCEPTOR>
40

> <PUBCHEM_CACTVS_HBOND_DONOR>
0

> <PUBCHEM_CACTVS_ROTATABLE_BOND>
15

> <PUBCHEM_CACTVS_SUBSKEYS>
AAADcQB4OcAAAAAAAAAAAAAAAAAAAAAAAAAAAAAAAAAAAAAAAAAAGwAAAAAACASggBIAAAAABAAAAAAAAAAAAAAAAAAAAAAAAAABAAAAAAACAAAAAAACAAAAAAAAAAAAAAAAAAAAAAAAAAAAAAAAAAAAAA==

> <PUBCHEM_IUPAC_OPENEYE_NAME>
1,1,1,2,3,3-hexafluoro-2-[1,1,2,3,3,3-hexafluoro-2-[1,1,2,3,3,3-hexafluoro-2-[1,1,2,3,3,3-hexafluoro-2-(1,1,2,2,3,3,3-heptafluoropropoxy)propoxy]propoxy]propoxy]-3-(1,2,2,2-tetrafluoroethoxy)propane

> <PUBCHEM_IUPAC_CAS_NAME>
1,1,1,2,3,3-hexafluoro-2-[1,1,2,3,3,3-hexafluoro-2-[1,1,2,3,3,3-hexafluoro-2-[1,1,2,3,3,3-hexafluoro-2-(1,1,2,2,3,3,3-heptafluoropropoxy)propoxy]propoxy]propoxy]-3-(1,2,2,2-tetrafluoroethoxy)propane

> <PUBCHEM_IUPAC_NAME_MARKUP>
1,1,1,2,3,3-hexafluoro-2-[1,1,2,3,3,3-hexafluoro-2-[1,1,2,3,3,3-hexafluoro-2-[1,1,2,3,3,3-hexafluoro-2-(1,1,2,2,3,3,3-heptafluoropropoxy)propoxy]propoxy]propoxy]-3-(1,2,2,2-tetrafluoroethoxy)propane

> <PUBCHEM_IUPAC_NAME>
1,1,1,2,3,3-hexafluoro-2-[1,1,2,3,3,3-hexafluoro-2-[1,1,2,3,3,3-hexafluoro-2-[1,1,2,3,3,3-hexafluoro-2-(1,1,2,2,3,3,3-heptafluoropropoxy)propoxy]propoxy]propoxy]-3-(1,2,2,2-tetrafluoroethoxy)propane

> <PUBCHEM_IUPAC_SYSTEMATIC_NAME>
1,1,1,2,3,3-hexakis(fluoranyl)-2-[1,1,2,3,3,3-hexakis(fluoranyl)-2-[1,1,2,3,3,3-hexakis(fluoranyl)-2-[1,1,2,3,3,3-hexakis(fluoranyl)-2-[1,1,2,2,3,3,3-heptakis(fluoranyl)propoxy]propoxy]propoxy]propoxy]-3-[1,2,2,2-tetrakis(fluoranyl)ethoxy]propane

> <PUBCHEM_IUPAC_TRADITIONAL_NAME>
1,1,1,2,3,3-hexafluoro-2-[1,1,2,3,3,3-hexafluoro-2-[1,1,2,3,3,3-hexafluoro-2-[1,1,2,3,3,3-hexafluoro-2-(1,1,2,2,3,3,3-heptafluoropropoxy)propoxy]propoxy]propoxy]-3-(1,2,2,2-tetrafluoroethoxy)propane

> <PUBCHEM_IUPAC_INCHI>
InChI=1S/C17HF35O5/c18-1(2(19,20)21)53-14(45,46)4(24,9(31,32)33)55-16(49,50)6(26,11(37,38)39)57-17(51,52)7(27,12(40,41)42)56-15(47,48)5(25,10(34,35)36)54-13(43,44)3(22,23)8(28,29)30/h1H

> <PUBCHEM_IUPAC_INCHIKEY>
MEXQRXXROOSHGK-UHFFFAOYSA-N

> <PUBCHEM_XLOGP3_AA>
12.5

> <PUBCHEM_EXACT_MASS>
949.9265088

> <PUBCHEM_MOLECULAR_FORMULA>
C17HF35O5

> <PUBCHEM_MOLECULAR_WEIGHT>
950.13

> <PUBCHEM_SMILES>
C(C(F)(F)F)(OC(C(C(F)(F)F)(OC(C(C(F)(F)F)(OC(C(C(F)(F)F)(OC(C(C(F)(F)F)(OC(C(C(F)(F)F)(F)F)(F)F)F)(F)F)F)(F)F)F)(F)F)F)(F)F)F

> <PUBCHEM_OPENEYE_CAN_SMILES>
C(C(F)(F)F)(OC(C(C(F)(F)F)(OC(C(C(F)(F)F)(OC(C(C(F)(F)F)(OC(C(C(F)(F)F)(OC(C(C(F)(F)F)(F)F)(F)F)F)(F)F)F)(F)F)F)(F)F)F)(F)F)F

> <PUBCHEM_OPENEYE_ISO_SMILES>
C(C(F)(F)F)(OC(C(C(F)(F)F)(OC(C(C(F)(F)F)(OC(C(C(F)(F)F)(OC(C(C(F)(F)F)(OC(C(C(F)(F)F)(F)F)(F)F)F)(F)F)F)(F)F)F)(F)F)F)(F)F)F

> <PUBCHEM_CACTVS_TPSA>
46.2

> <PUBCHEM_MONOISOTOPIC_WEIGHT>
949.9265088

> <PUBCHEM_TOTAL_CHARGE>
0

> <PUBCHEM_HEAVY_ATOM_COUNT>
57

> <PUBCHEM_ATOM_DEF_STEREO_COUNT>
0

> <PUBCHEM_ATOM_UDEF_STEREO_COUNT>
5

> <PUBCHEM_BOND_DEF_STEREO_COUNT>
0

> <PUBCHEM_BOND_UDEF_STEREO_COUNT>
0

> <PUBCHEM_ISOTOPIC_ATOM_COUNT>
0

> <PUBCHEM_COMPONENT_COUNT>
1

> <PUBCHEM_CACTVS_TAUTO_COUNT>
-1

> <PUBCHEM_COORDINATE_TYPE>
1
5
255

> <PUBCHEM_BONDANNOTATIONS>
41  1  3
47  10  3
42  2  3
56  32  3
45  7  3

$$$$
