13007014
  -OEChem-04042512152D

 41 42  0     1  0  0  0  0  0999 V2000
    3.0665   -5.1465    0.0000 Sr  0  2  0  0  0  0  0  0  0  0  0  0
    3.9326   -3.6465    0.0000 S   0  0  0  0  0  0  0  0  0  0  0  0
    3.9045   -0.3677    0.0000 O   0  0  0  0  0  0  0  0  0  0  0  0
    3.0665   -4.1465    0.0000 O   0  5  0  0  0  0  0  0  0  0  0  0
    4.4326   -4.5125    0.0000 O   0  0  0  0  0  0  0  0  0  0  0  0
    3.4326   -2.7805    0.0000 O   0  0  0  0  0  0  0  0  0  0  0  0
    2.0000    2.3013    0.0000 O   0  5  0  0  0  0  0  0  0  0  0  0
    3.5823    1.5968    0.0000 O   0  0  0  0  0  0  0  0  0  0  0  0
    5.6646   -0.6465    0.0000 N   0  0  0  0  0  0  0  0  0  0  0  0
    6.4736   -0.0587    0.0000 N   0  0  0  0  0  0  0  0  0  0  0  0
    4.5768    1.7014    0.0000 N   0  0  0  0  0  0  0  0  0  0  0  0
    4.9836    2.6149    0.0000 N   0  0  0  0  0  0  0  0  0  0  0  0
    5.1646    0.8924    0.0000 C   0  0  3  0  0  0  0  0  0  0  0  0
    6.1646    0.8924    0.0000 C   0  0  0  0  0  0  0  0  0  0  0  0
    4.8556   -0.0587    0.0000 C   0  0  0  0  0  0  0  0  0  0  0  0
    5.6646   -1.6465    0.0000 C   0  0  0  0  0  0  0  0  0  0  0  0
    4.7986   -2.1465    0.0000 C   0  0  0  0  0  0  0  0  0  0  0  0
    6.7524    1.7014    0.0000 C   0  0  0  0  0  0  0  0  0  0  0  0
    6.5306   -2.1465    0.0000 C   0  0  0  0  0  0  0  0  0  0  0  0
    4.7986   -3.1465    0.0000 C   0  0  0  0  0  0  0  0  0  0  0  0
    6.5306   -3.1465    0.0000 C   0  0  0  0  0  0  0  0  0  0  0  0
    5.6646   -3.6465    0.0000 C   0  0  0  0  0  0  0  0  0  0  0  0
    4.3958    3.4239    0.0000 C   0  0  0  0  0  0  0  0  0  0  0  0
    3.4013    3.3194    0.0000 C   0  0  0  0  0  0  0  0  0  0  0  0
    4.8025    4.3375    0.0000 C   0  0  0  0  0  0  0  0  0  0  0  0
    2.8135    4.1284    0.0000 C   0  0  0  0  0  0  0  0  0  0  0  0
    4.2147    5.1465    0.0000 C   0  0  0  0  0  0  0  0  0  0  0  0
    3.2202    5.0420    0.0000 C   0  0  0  0  0  0  0  0  0  0  0  0
    2.9945    2.4059    0.0000 C   0  0  0  0  0  0  0  0  0  0  0  0
    4.5522    0.7954    0.0000 H   0  0  0  0  0  0  0  0  0  0  0  0
    4.2617   -1.8365    0.0000 H   0  0  0  0  0  0  0  0  0  0  0  0
    7.2540    1.3369    0.0000 H   0  0  0  0  0  0  0  0  0  0  0  0
    7.1168    2.2030    0.0000 H   0  0  0  0  0  0  0  0  0  0  0  0
    6.2508    2.0658    0.0000 H   0  0  0  0  0  0  0  0  0  0  0  0
    7.0676   -1.8365    0.0000 H   0  0  0  0  0  0  0  0  0  0  0  0
    7.0676   -3.4565    0.0000 H   0  0  0  0  0  0  0  0  0  0  0  0
    5.6646   -4.2665    0.0000 H   0  0  0  0  0  0  0  0  0  0  0  0
    5.4191    4.4023    0.0000 H   0  0  0  0  0  0  0  0  0  0  0  0
    2.1969    4.0636    0.0000 H   0  0  0  0  0  0  0  0  0  0  0  0
    4.4669    5.7129    0.0000 H   0  0  0  0  0  0  0  0  0  0  0  0
    2.8558    5.5436    0.0000 H   0  0  0  0  0  0  0  0  0  0  0  0
  2  4  1  0  0  0  0
  2  5  2  0  0  0  0
  2  6  2  0  0  0  0
  2 20  1  0  0  0  0
  3 15  2  0  0  0  0
  7 29  1  0  0  0  0
  8 29  2  0  0  0  0
  9 10  1  0  0  0  0
  9 15  1  0  0  0  0
  9 16  1  0  0  0  0
 10 14  2  0  0  0  0
 11 12  2  0  0  0  0
 11 13  1  0  0  0  0
 12 23  1  0  0  0  0
 13 14  1  0  0  0  0
 13 15  1  0  0  0  0
 13 30  1  0  0  0  0
 14 18  1  0  0  0  0
 16 17  2  0  0  0  0
 16 19  1  0  0  0  0
 17 20  1  0  0  0  0
 17 31  1  0  0  0  0
 18 32  1  0  0  0  0
 18 33  1  0  0  0  0
 18 34  1  0  0  0  0
 19 21  2  0  0  0  0
 19 35  1  0  0  0  0
 20 22  2  0  0  0  0
 21 22  1  0  0  0  0
 21 36  1  0  0  0  0
 22 37  1  0  0  0  0
 23 24  1  0  0  0  0
 23 25  2  0  0  0  0
 24 26  2  0  0  0  0
 24 29  1  0  0  0  0
 25 27  1  0  0  0  0
 25 38  1  0  0  0  0
 26 28  1  0  0  0  0
 26 39  1  0  0  0  0
 27 28  2  0  0  0  0
 27 40  1  0  0  0  0
 28 41  1  0  0  0  0
M  CHG  3   1   2   4  -1   7  -1
M  END
> <PUBCHEM_COMPOUND_CID>
13007014

> <PUBCHEM_COMPOUND_CANONICALIZED>
1

> <PUBCHEM_CACTVS_COMPLEXITY>
771

> <PUBCHEM_CACTVS_HBOND_ACCEPTOR>
9

> <PUBCHEM_CACTVS_HBOND_DONOR>
0

> <PUBCHEM_CACTVS_ROTATABLE_BOND>
3

> <PUBCHEM_CACTVS_SUBSKEYS>
AAADccB7uABAAAAABAAAAAAAAAAAAQAAAAAwYAAAAAAAAAABQAAAHgQIAAAADCjB2AQyyYIAAAKqAyXyWHDSBEAlAgAaiBmwbMgIZjrAlZGUMYxmzAHIyceYyCCOAAAAACACAAAAAAAAQAQAAAAAAAAAAA==

> <PUBCHEM_IUPAC_OPENEYE_NAME>
strontium;2-[[3-methyl-5-oxo-1-(3-sulfonatophenyl)-4H-pyrazol-4-yl]azo]benzoate

> <PUBCHEM_IUPAC_CAS_NAME>
strontium;2-[[3-methyl-5-oxo-1-(3-sulfonatophenyl)-4H-pyrazol-4-yl]azo]benzoate

> <PUBCHEM_IUPAC_NAME_MARKUP>
strontium;2-[[3-methyl-5-oxo-1-(3-sulfonatophenyl)-4<I>H</I>-pyrazol-4-yl]diazenyl]benzoate

> <PUBCHEM_IUPAC_NAME>
strontium;2-[[3-methyl-5-oxo-1-(3-sulfonatophenyl)-4H-pyrazol-4-yl]diazenyl]benzoate

> <PUBCHEM_IUPAC_SYSTEMATIC_NAME>
strontium;2-[[3-methyl-5-oxidanylidene-1-(3-sulfonatophenyl)-4H-pyrazol-4-yl]diazenyl]benzoate

> <PUBCHEM_IUPAC_TRADITIONAL_NAME>
strontium;2-[[5-keto-3-methyl-1-(3-sulfonatophenyl)-2-pyrazolin-4-yl]azo]benzoate

> <PUBCHEM_IUPAC_INCHI>
InChI=1S/C17H14N4O6S.Sr/c1-10-15(19-18-14-8-3-2-7-13(14)17(23)24)16(22)21(20-10)11-5-4-6-12(9-11)28(25,26)27;/h2-9,15H,1H3,(H,23,24)(H,25,26,27);/q;+2/p-2

> <PUBCHEM_IUPAC_INCHIKEY>
HAISNUCKWZSOLF-UHFFFAOYSA-L

> <PUBCHEM_EXACT_MASS>
487.95336754

> <PUBCHEM_MOLECULAR_FORMULA>
C17H12N4O6SSr

> <PUBCHEM_MOLECULAR_WEIGHT>
488.0

> <PUBCHEM_SMILES>
CC1=NN(C(=O)C1N=NC2=CC=CC=C2C(=O)[O-])C3=CC(=CC=C3)S(=O)(=O)[O-].[Sr+2]

> <PUBCHEM_OPENEYE_CAN_SMILES>
CC1=NN(C(=O)C1N=NC2=CC=CC=C2C(=O)[O-])C3=CC(=CC=C3)S(=O)(=O)[O-].[Sr+2]

> <PUBCHEM_OPENEYE_ISO_SMILES>
CC1=NN(C(=O)C1N=NC2=CC=CC=C2C(=O)[O-])C3=CC(=CC=C3)S(=O)(=O)[O-].[Sr+2]

> <PUBCHEM_CACTVS_TPSA>
163

> <PUBCHEM_MONOISOTOPIC_WEIGHT>
487.95336754

> <PUBCHEM_TOTAL_CHARGE>
0

> <PUBCHEM_HEAVY_ATOM_COUNT>
29

> <PUBCHEM_ATOM_DEF_STEREO_COUNT>
0

> <PUBCHEM_ATOM_UDEF_STEREO_COUNT>
1

> <PUBCHEM_BOND_DEF_STEREO_COUNT>
0

> <PUBCHEM_BOND_UDEF_STEREO_COUNT>
0

> <PUBCHEM_ISOTOPIC_ATOM_COUNT>
0

> <PUBCHEM_COMPONENT_COUNT>
2

> <PUBCHEM_CACTVS_TAUTO_COUNT>
-1

> <PUBCHEM_COORDINATE_TYPE>
1
5
255

> <PUBCHEM_BONDANNOTATIONS>
13  11  3
16  17  8
16  19  8
17  20  8
19  21  8
20  22  8
21  22  8
23  24  8
23  25  8
24  26  8
25  27  8
26  28  8
27  28  8

$$$$
