13329881
  -OEChem-04042512152D

 16 16  0     1  0  0  0  0  0999 V2000
    2.6166    1.4839    0.0000 O   0  0  0  0  0  0  0  0  0  0  0  0
    4.7922    1.4839    0.0000 O   0  0  0  0  0  0  0  0  0  0  0  0
    3.7044   -0.8639    0.0000 N   0  0  0  0  0  0  0  0  0  0  0  0
    3.2044    0.6749    0.0000 C   0  0  3  0  0  0  0  0  0  0  0  0
    4.2044    0.6749    0.0000 C   0  0  3  0  0  0  0  0  0  0  0  0
    2.8954   -0.2761    0.0000 C   0  0  0  0  0  0  0  0  0  0  0  0
    4.5134   -0.2761    0.0000 C   0  0  0  0  0  0  0  0  0  0  0  0
    2.5920    0.5779    0.0000 H   0  0  0  0  0  0  0  0  0  0  0  0
    3.9229    1.2273    0.0000 H   0  0  0  0  0  0  0  0  0  0  0  0
    2.3290   -0.0240    0.0000 H   0  0  0  0  0  0  0  0  0  0  0  0
    2.5854   -0.8131    0.0000 H   0  0  0  0  0  0  0  0  0  0  0  0
    4.8234   -0.8131    0.0000 H   0  0  0  0  0  0  0  0  0  0  0  0
    5.0798   -0.0240    0.0000 H   0  0  0  0  0  0  0  0  0  0  0  0
    3.7044   -1.4839    0.0000 H   0  0  0  0  0  0  0  0  0  0  0  0
    2.0000    1.4191    0.0000 H   0  0  0  0  0  0  0  0  0  0  0  0
    5.4088    1.4191    0.0000 H   0  0  0  0  0  0  0  0  0  0  0  0
  1  4  1  0  0  0  0
  1 15  1  0  0  0  0
  2  5  1  0  0  0  0
  2 16  1  0  0  0  0
  3  6  1  0  0  0  0
  3  7  1  0  0  0  0
  3 14  1  0  0  0  0
  4  5  1  0  0  0  0
  4  6  1  0  0  0  0
  4  8  1  0  0  0  0
  5  7  1  0  0  0  0
  5  9  1  0  0  0  0
  6 10  1  0  0  0  0
  6 11  1  0  0  0  0
  7 12  1  0  0  0  0
  7 13  1  0  0  0  0
M  END
> <PUBCHEM_COMPOUND_CID>
13329881

> <PUBCHEM_COMPOUND_CANONICALIZED>
1

> <PUBCHEM_CACTVS_COMPLEXITY>
58.7

> <PUBCHEM_CACTVS_HBOND_ACCEPTOR>
3

> <PUBCHEM_CACTVS_HBOND_DONOR>
3

> <PUBCHEM_CACTVS_ROTATABLE_BOND>
0

> <PUBCHEM_CACTVS_SUBSKEYS>
AAADccBiMAAAAAAAAAAAAAAAAAAAAWAAAAAAAAAAAAAAAAAAAAAAHgAQCAAACBThgAYAAALAAgAAAAAAAAAAAAAAAAAAAIAIAAADEAAAgAAEQAACEACRAAAAAAAAAAAAAAAAAAAAAAAAAAAAAAAAAAAAAA==

> <PUBCHEM_IUPAC_OPENEYE_NAME>
pyrrolidine-3,4-diol

> <PUBCHEM_IUPAC_CAS_NAME>
pyrrolidine-3,4-diol

> <PUBCHEM_IUPAC_NAME_MARKUP>
pyrrolidine-3,4-diol

> <PUBCHEM_IUPAC_NAME>
pyrrolidine-3,4-diol

> <PUBCHEM_IUPAC_SYSTEMATIC_NAME>
pyrrolidine-3,4-diol

> <PUBCHEM_IUPAC_TRADITIONAL_NAME>
pyrrolidine-3,4-diol

> <PUBCHEM_IUPAC_INCHI>
InChI=1S/C4H9NO2/c6-3-1-5-2-4(3)7/h3-7H,1-2H2

> <PUBCHEM_IUPAC_INCHIKEY>
JCZPOYAMKJFOLA-UHFFFAOYSA-N

> <PUBCHEM_XLOGP3_AA>
-1.7

> <PUBCHEM_EXACT_MASS>
103.063328530

> <PUBCHEM_MOLECULAR_FORMULA>
C4H9NO2

> <PUBCHEM_MOLECULAR_WEIGHT>
103.12

> <PUBCHEM_SMILES>
C1C(C(CN1)O)O

> <PUBCHEM_OPENEYE_CAN_SMILES>
C1C(C(CN1)O)O

> <PUBCHEM_OPENEYE_ISO_SMILES>
C1C(C(CN1)O)O

> <PUBCHEM_CACTVS_TPSA>
52.5

> <PUBCHEM_MONOISOTOPIC_WEIGHT>
103.063328530

> <PUBCHEM_TOTAL_CHARGE>
0

> <PUBCHEM_HEAVY_ATOM_COUNT>
7

> <PUBCHEM_ATOM_DEF_STEREO_COUNT>
0

> <PUBCHEM_ATOM_UDEF_STEREO_COUNT>
2

> <PUBCHEM_BOND_DEF_STEREO_COUNT>
0

> <PUBCHEM_BOND_UDEF_STEREO_COUNT>
0

> <PUBCHEM_ISOTOPIC_ATOM_COUNT>
0

> <PUBCHEM_COMPONENT_COUNT>
1

> <PUBCHEM_CACTVS_TAUTO_COUNT>
-1

> <PUBCHEM_COORDINATE_TYPE>
1
5
255

> <PUBCHEM_BONDANNOTATIONS>
4  1  3
5  2  3

$$$$
