135020626
  -OEChem-04042505482D

 43 49  0     0  0  0  0  0  0999 V2000
    6.7718    2.5295    0.0000 O   0  0  0  0  0  0  0  0  0  0  0  0
    5.5801   -3.3330    0.0000 O   0  0  0  0  0  0  0  0  0  0  0  0
    3.3242    1.0686    0.0000 C   0  0  0  0  0  0  0  0  0  0  0  0
    2.9923   -0.5063    0.0000 C   0  0  0  0  0  0  0  0  0  0  0  0
    4.1902    0.5686    0.0000 C   0  0  0  0  0  0  0  0  0  0  0  0
    3.9810   -0.4032    0.0000 C   0  0  0  0  0  0  0  0  0  0  0  0
    2.5872    0.4015    0.0000 C   0  0  0  0  0  0  0  0  0  0  0  0
    4.1902    2.5686    0.0000 C   0  0  0  0  0  0  0  0  0  0  0  0
    3.1572   -2.2881    0.0000 C   0  0  0  0  0  0  0  0  0  0  0  0
    5.0563    2.0686    0.0000 C   0  0  0  0  0  0  0  0  0  0  0  0
    4.1871   -2.1808    0.0000 C   0  0  0  0  0  0  0  0  0  0  0  0
    3.3242    2.0686    0.0000 C   0  0  0  0  0  0  0  0  0  0  0  0
    2.5558   -1.4452    0.0000 C   0  0  0  0  0  0  0  0  0  0  0  0
    5.0563    1.0686    0.0000 C   0  0  0  0  0  0  0  0  0  0  0  0
    4.6018   -1.2320    0.0000 C   0  0  0  0  0  0  0  0  0  0  0  0
    4.3994    3.5404    0.0000 C   0  0  0  0  0  0  0  0  0  0  0  0
    2.9450   -3.2954    0.0000 C   0  0  0  0  0  0  0  0  0  0  0  0
    5.3882    3.6434    0.0000 C   0  0  0  0  0  0  0  0  0  0  0  0
    3.8364   -3.8100    0.0000 C   0  0  0  0  0  0  0  0  0  0  0  0
    5.7933    2.7357    0.0000 C   0  0  0  0  0  0  0  0  0  0  0  0
    4.6025   -3.1226    0.0000 C   0  0  0  0  0  0  0  0  0  0  0  0
    3.7787    4.3692    0.0000 C   0  0  0  0  0  0  0  0  0  0  0  0
    2.0083   -3.8171    0.0000 C   0  0  0  0  0  0  0  0  0  0  0  0
    5.8247    4.5824    0.0000 C   0  0  0  0  0  0  0  0  0  0  0  0
    3.8529   -4.8821    0.0000 C   0  0  0  0  0  0  0  0  0  0  0  0
    4.1934    5.3180    0.0000 C   0  0  0  0  0  0  0  0  0  0  0  0
    2.0000   -4.8892    0.0000 C   0  0  0  0  0  0  0  0  0  0  0  0
    5.2232    5.4253    0.0000 C   0  0  0  0  0  0  0  0  0  0  0  0
    2.9285   -5.4253    0.0000 C   0  0  0  0  0  0  0  0  0  0  0  0
    2.2218    0.9024    0.0000 H   0  0  0  0  0  0  0  0  0  0  0  0
    2.0507    0.0907    0.0000 H   0  0  0  0  0  0  0  0  0  0  0  0
    2.7873    2.3786    0.0000 H   0  0  0  0  0  0  0  0  0  0  0  0
    1.9384   -1.5024    0.0000 H   0  0  0  0  0  0  0  0  0  0  0  0
    5.5932    0.7586    0.0000 H   0  0  0  0  0  0  0  0  0  0  0  0
    5.2177   -1.1606    0.0000 H   0  0  0  0  0  0  0  0  0  0  0  0
    3.1628    4.2978    0.0000 H   0  0  0  0  0  0  0  0  0  0  0  0
    1.4750   -3.5009    0.0000 H   0  0  0  0  0  0  0  0  0  0  0  0
    6.4420    4.6396    0.0000 H   0  0  0  0  0  0  0  0  0  0  0  0
    4.3934   -5.1858    0.0000 H   0  0  0  0  0  0  0  0  0  0  0  0
    3.8274    5.8185    0.0000 H   0  0  0  0  0  0  0  0  0  0  0  0
    1.4619   -5.1972    0.0000 H   0  0  0  0  0  0  0  0  0  0  0  0
    5.4781    5.9905    0.0000 H   0  0  0  0  0  0  0  0  0  0  0  0
    2.9309   -6.0453    0.0000 H   0  0  0  0  0  0  0  0  0  0  0  0
  1 20  2  0  0  0  0
  2 21  2  0  0  0  0
  3  5  1  0  0  0  0
  3  7  1  0  0  0  0
  3 12  2  0  0  0  0
  4  6  1  0  0  0  0
  4  7  1  0  0  0  0
  4 13  2  0  0  0  0
  5  6  1  0  0  0  0
  5 14  2  0  0  0  0
  6 15  2  0  0  0  0
  7 30  1  0  0  0  0
  7 31  1  0  0  0  0
  8 10  2  0  0  0  0
  8 12  1  0  0  0  0
  8 16  1  0  0  0  0
  9 11  2  0  0  0  0
  9 13  1  0  0  0  0
  9 17  1  0  0  0  0
 10 14  1  0  0  0  0
 10 20  1  0  0  0  0
 11 15  1  0  0  0  0
 11 21  1  0  0  0  0
 12 32  1  0  0  0  0
 13 33  1  0  0  0  0
 14 34  1  0  0  0  0
 15 35  1  0  0  0  0
 16 18  1  0  0  0  0
 16 22  2  0  0  0  0
 17 19  1  0  0  0  0
 17 23  2  0  0  0  0
 18 20  1  0  0  0  0
 18 24  2  0  0  0  0
 19 21  1  0  0  0  0
 19 25  2  0  0  0  0
 22 26  1  0  0  0  0
 22 36  1  0  0  0  0
 23 27  1  0  0  0  0
 23 37  1  0  0  0  0
 24 28  1  0  0  0  0
 24 38  1  0  0  0  0
 25 29  1  0  0  0  0
 25 39  1  0  0  0  0
 26 28  2  0  0  0  0
 26 40  1  0  0  0  0
 27 29  2  0  0  0  0
 27 41  1  0  0  0  0
 28 42  1  0  0  0  0
 29 43  1  0  0  0  0
M  END
> <PUBCHEM_COMPOUND_CID>
135020626

> <PUBCHEM_COMPOUND_CANONICALIZED>
1

> <PUBCHEM_CACTVS_COMPLEXITY>
666

> <PUBCHEM_CACTVS_HBOND_ACCEPTOR>
2

> <PUBCHEM_CACTVS_HBOND_DONOR>
0

> <PUBCHEM_CACTVS_ROTATABLE_BOND>
0

> <PUBCHEM_CACTVS_SUBSKEYS>
AAADccB4MAAAAAAAAAAAAAAAAAAAAYMGAAAwYMGAAAAAAGABVAAAGgAAAAAADASAmAAwAIAAAACIAqBSAAACAAAkAAAIiAEAAMgIIDKAFRCAIQAggAAIiYcIiMCOwAACAAAQAACAAAQAACAAAQAACAAAAA==

> <PUBCHEM_IUPAC_OPENEYE_NAME>
heptacyclo[14.11.0.02,14.04,12.06,11.018,26.019,24]heptacosa-1(27),2,4(12),6,8,10,13,16,18(26),19,21,23-dodecaene-5,25-dione

> <PUBCHEM_IUPAC_CAS_NAME>
heptacyclo[14.11.0.02,14.04,12.06,11.018,26.019,24]heptacosa-1(27),2,4(12),6,8,10,13,16,18(26),19,21,23-dodecaene-5,25-dione

> <PUBCHEM_IUPAC_NAME_MARKUP>
heptacyclo[14.11.0.0<SUP>2,14</SUP>.0<SUP>4,12</SUP>.0<SUP>6,11</SUP>.0<SUP>18,26</SUP>.0<SUP>19,24</SUP>]heptacosa-1(27),2,4(12),6,8,10,13,16,18(26),19,21,23-dodecaene-5,25-dione

> <PUBCHEM_IUPAC_NAME>
heptacyclo[14.11.0.02,14.04,12.06,11.018,26.019,24]heptacosa-1(27),2,4(12),6,8,10,13,16,18(26),19,21,23-dodecaene-5,25-dione

> <PUBCHEM_IUPAC_SYSTEMATIC_NAME>
heptacyclo[14.11.0.02,14.04,12.06,11.018,26.019,24]heptacosa-1(27),2,4(12),6,8,10,13,16,18(26),19,21,23-dodecaene-5,25-dione

> <PUBCHEM_IUPAC_TRADITIONAL_NAME>
heptacyclo[14.11.0.02,14.04,12.06,11.018,26.019,24]heptacosa-1(27),2,4(12),6,8,10,13,16,18(26),19,21,23-dodecaene-5,25-quinone

> <PUBCHEM_IUPAC_INCHI>
InChI=1S/C27H14O2/c28-26-18-7-3-1-5-16(18)22-10-14-9-15-11-23-17-6-2-4-8-19(17)27(29)25(23)13-21(15)20(14)12-24(22)26/h1-8,10-13H,9H2

> <PUBCHEM_IUPAC_INCHIKEY>
NSYLYZAYAMBARI-UHFFFAOYSA-N

> <PUBCHEM_XLOGP3_AA>
5.8

> <PUBCHEM_EXACT_MASS>
370.099379685

> <PUBCHEM_MOLECULAR_FORMULA>
C27H14O2

> <PUBCHEM_MOLECULAR_WEIGHT>
370.4

> <PUBCHEM_SMILES>
C1C2=CC3=C(C=C2C4=CC5=C(C=C41)C6=CC=CC=C6C5=O)C(=O)C7=CC=CC=C73

> <PUBCHEM_OPENEYE_CAN_SMILES>
C1C2=CC3=C(C=C2C4=CC5=C(C=C41)C6=CC=CC=C6C5=O)C(=O)C7=CC=CC=C73

> <PUBCHEM_OPENEYE_ISO_SMILES>
C1C2=CC3=C(C=C2C4=CC5=C(C=C41)C6=CC=CC=C6C5=O)C(=O)C7=CC=CC=C73

> <PUBCHEM_CACTVS_TPSA>
34.1

> <PUBCHEM_MONOISOTOPIC_WEIGHT>
370.099379685

> <PUBCHEM_TOTAL_CHARGE>
0

> <PUBCHEM_HEAVY_ATOM_COUNT>
29

> <PUBCHEM_ATOM_DEF_STEREO_COUNT>
0

> <PUBCHEM_ATOM_UDEF_STEREO_COUNT>
0

> <PUBCHEM_BOND_DEF_STEREO_COUNT>
0

> <PUBCHEM_BOND_UDEF_STEREO_COUNT>
0

> <PUBCHEM_ISOTOPIC_ATOM_COUNT>
0

> <PUBCHEM_COMPONENT_COUNT>
1

> <PUBCHEM_CACTVS_TAUTO_COUNT>
-1

> <PUBCHEM_COORDINATE_TYPE>
1
5
255

> <PUBCHEM_BONDANNOTATIONS>
10  14  8
11  15  8
16  18  8
16  22  8
17  19  8
17  23  8
18  24  8
19  25  8
22  26  8
23  27  8
24  28  8
25  29  8
26  28  8
27  29  8
3  12  8
3  5  8
4  13  8
4  6  8
5  14  8
6  15  8
8  10  8
8  12  8
9  11  8
9  13  8

$$$$
