135414251
  -OEChem-04042512242D

 24 26  0     0  0  0  0  0  0999 V2000
    7.8167    1.8394    0.0000 O   0  0  0  0  0  0  0  0  0  0  0  0
    4.3198    1.8394    0.0000 O   0  0  0  0  0  0  0  0  0  0  0  0
    6.0682    0.8048    0.0000 N   0  0  0  0  0  0  0  0  0  0  0  0
    6.0682   -1.1952    0.0000 N   0  0  0  0  0  0  0  0  0  0  0  0
    8.7343    0.3256    0.0000 N   0  0  0  0  0  0  0  0  0  0  0  0
    3.4022    0.3256    0.0000 N   0  0  0  0  0  0  0  0  0  0  0  0
    7.8282   -1.2299    0.0000 N   0  0  0  0  0  0  0  0  0  0  0  0
    4.3083   -1.2299    0.0000 N   0  0  0  0  0  0  0  0  0  0  0  0
    9.5984   -1.2194    0.0000 N   0  0  0  0  0  0  0  0  0  0  0  0
    2.5381   -1.2194    0.0000 N   0  0  0  0  0  0  0  0  0  0  0  0
    6.9343    0.3048    0.0000 C   0  0  0  0  0  0  0  0  0  0  0  0
    5.2022    0.3048    0.0000 C   0  0  0  0  0  0  0  0  0  0  0  0
    6.9343   -0.6952    0.0000 C   0  0  0  0  0  0  0  0  0  0  0  0
    5.2022   -0.6952    0.0000 C   0  0  0  0  0  0  0  0  0  0  0  0
    7.8282    0.8394    0.0000 C   0  0  0  0  0  0  0  0  0  0  0  0
    4.3083    0.8394    0.0000 C   0  0  0  0  0  0  0  0  0  0  0  0
    8.7343   -0.7160    0.0000 C   0  0  0  0  0  0  0  0  0  0  0  0
    3.4022   -0.7160    0.0000 C   0  0  0  0  0  0  0  0  0  0  0  0
    9.2700    0.6377    0.0000 H   0  0  0  0  0  0  0  0  0  0  0  0
    2.8665    0.6377    0.0000 H   0  0  0  0  0  0  0  0  0  0  0  0
    9.5960   -1.8394    0.0000 H   0  0  0  0  0  0  0  0  0  0  0  0
   10.1365   -0.9114    0.0000 H   0  0  0  0  0  0  0  0  0  0  0  0
    2.5405   -1.8394    0.0000 H   0  0  0  0  0  0  0  0  0  0  0  0
    2.0000   -0.9114    0.0000 H   0  0  0  0  0  0  0  0  0  0  0  0
  1 15  2  0  0  0  0
  2 16  2  0  0  0  0
  3 11  2  0  0  0  0
  3 12  1  0  0  0  0
  4 13  2  0  0  0  0
  4 14  1  0  0  0  0
  5 15  1  0  0  0  0
  5 17  1  0  0  0  0
  5 19  1  0  0  0  0
  6 16  1  0  0  0  0
  6 18  1  0  0  0  0
  6 20  1  0  0  0  0
  7 13  1  0  0  0  0
  7 17  2  0  0  0  0
  8 14  1  0  0  0  0
  8 18  2  0  0  0  0
  9 17  1  0  0  0  0
  9 21  1  0  0  0  0
  9 22  1  0  0  0  0
 10 18  1  0  0  0  0
 10 23  1  0  0  0  0
 10 24  1  0  0  0  0
 11 13  1  0  0  0  0
 11 15  1  0  0  0  0
 12 14  2  0  0  0  0
 12 16  1  0  0  0  0
M  END
> <PUBCHEM_COMPOUND_CID>
135414251

> <PUBCHEM_COMPOUND_CANONICALIZED>
1

> <PUBCHEM_CACTVS_COMPLEXITY>
443

> <PUBCHEM_CACTVS_HBOND_ACCEPTOR>
6

> <PUBCHEM_CACTVS_HBOND_DONOR>
4

> <PUBCHEM_CACTVS_ROTATABLE_BOND>
0

> <PUBCHEM_CACTVS_SUBSKEYS>
AAADcYBz8AAAAAAAAAAAAAAAAAAAAAAAAAAsQIAAAAAAAACBgAAADgAQAAAACAgBlgABsBLIEACoAQdwdACAgC0HECABEAGgVECAQEhASCAUAIgAAQLAAGAAAAAAAAAAAAAAAAAAAAAAAAAAAAAAAAAAAA==

> <PUBCHEM_IUPAC_OPENEYE_NAME>
2,8-diamino-3,7-dihydropyrimido[5,4-g]pteridine-4,6-dione

> <PUBCHEM_IUPAC_CAS_NAME>
2,8-diamino-3,7-dihydropyrimido[5,4-g]pteridine-4,6-dione

> <PUBCHEM_IUPAC_NAME_MARKUP>
2,8-diamino-3,7-dihydropyrimido[5,4-g]pteridine-4,6-dione

> <PUBCHEM_IUPAC_NAME>
2,8-diamino-3,7-dihydropyrimido[5,4-g]pteridine-4,6-dione

> <PUBCHEM_IUPAC_SYSTEMATIC_NAME>
2,8-bis(azanyl)-3,7-dihydropyrimido[5,4-g]pteridine-4,6-dione

> <PUBCHEM_IUPAC_TRADITIONAL_NAME>
2,8-diamino-3,7-dihydropyrimido[5,4-g]pteridine-4,6-quinone

> <PUBCHEM_IUPAC_INCHI>
InChI=1S/C8H6N8O2/c9-7-13-3-1(5(17)15-7)11-2-4(12-3)14-8(10)16-6(2)18/h(H6,9,10,12,13,14,15,16,17,18)

> <PUBCHEM_IUPAC_INCHIKEY>
RKXYMLOOMRYDON-UHFFFAOYSA-N

> <PUBCHEM_XLOGP3_AA>
-2.5

> <PUBCHEM_EXACT_MASS>
246.06137146

> <PUBCHEM_MOLECULAR_FORMULA>
C8H6N8O2

> <PUBCHEM_MOLECULAR_WEIGHT>
246.19

> <PUBCHEM_SMILES>
C12=C(N=C3C(=N1)C(=O)NC(=N3)N)N=C(NC2=O)N

> <PUBCHEM_OPENEYE_CAN_SMILES>
C12=C(N=C3C(=N1)C(=O)NC(=N3)N)N=C(NC2=O)N

> <PUBCHEM_OPENEYE_ISO_SMILES>
C12=C(N=C3C(=N1)C(=O)NC(=N3)N)N=C(NC2=O)N

> <PUBCHEM_CACTVS_TPSA>
161

> <PUBCHEM_MONOISOTOPIC_WEIGHT>
246.06137146

> <PUBCHEM_TOTAL_CHARGE>
0

> <PUBCHEM_HEAVY_ATOM_COUNT>
18

> <PUBCHEM_ATOM_DEF_STEREO_COUNT>
0

> <PUBCHEM_ATOM_UDEF_STEREO_COUNT>
0

> <PUBCHEM_BOND_DEF_STEREO_COUNT>
0

> <PUBCHEM_BOND_UDEF_STEREO_COUNT>
0

> <PUBCHEM_ISOTOPIC_ATOM_COUNT>
0

> <PUBCHEM_COMPONENT_COUNT>
1

> <PUBCHEM_CACTVS_TAUTO_COUNT>
-1

> <PUBCHEM_COORDINATE_TYPE>
1
5
255

> <PUBCHEM_BONDANNOTATIONS>
11  13  8
11  15  8
12  14  8
12  16  8
3  11  8
3  12  8
4  13  8
4  14  8
5  15  8
5  17  8
6  16  8
6  18  8
7  13  8
7  17  8
8  14  8
8  18  8

$$$$
