135414248
  -OEChem-04042505422D

 77 80  0     0  0  0  0  0  0999 V2000
    8.9282    3.4400    0.0000 O   0  0  0  0  0  0  0  0  0  0  0  0
   12.3923    3.4400    0.0000 O   0  0  0  0  0  0  0  0  0  0  0  0
   12.3923    0.4400    0.0000 N   0  0  0  0  0  0  0  0  0  0  0  0
   13.2583    1.9400    0.0000 N   0  0  0  0  0  0  0  0  0  0  0  0
   14.1244    0.4400    0.0000 N   0  0  0  0  0  0  0  0  0  0  0  0
    5.4641    3.4400    0.0000 C   0  0  0  0  0  0  0  0  0  0  0  0
    4.5981    2.9400    0.0000 C   0  0  0  0  0  0  0  0  0  0  0  0
    6.3301    2.9400    0.0000 C   0  0  0  0  0  0  0  0  0  0  0  0
    3.7320    3.4400    0.0000 C   0  0  0  0  0  0  0  0  0  0  0  0
    7.1962    3.4400    0.0000 C   0  0  0  0  0  0  0  0  0  0  0  0
    2.8660    2.9400    0.0000 C   0  0  0  0  0  0  0  0  0  0  0  0
    8.0622    2.9400    0.0000 C   0  0  0  0  0  0  0  0  0  0  0  0
    2.0000    3.4400    0.0000 C   0  0  0  0  0  0  0  0  0  0  0  0
    9.7942    2.9400    0.0000 C   0  0  0  0  0  0  0  0  0  0  0  0
   11.5263    1.9400    0.0000 C   0  0  0  0  0  0  0  0  0  0  0  0
   10.6603    3.4400    0.0000 C   0  0  0  0  0  0  0  0  0  0  0  0
    9.7942    1.9400    0.0000 C   0  0  0  0  0  0  0  0  0  0  0  0
   11.5263    2.9400    0.0000 C   0  0  0  0  0  0  0  0  0  0  0  0
   12.3923    1.4400    0.0000 C   0  0  0  0  0  0  0  0  0  0  0  0
   13.2583   -1.0600    0.0000 C   0  0  0  0  0  0  0  0  0  0  0  0
   14.9904    1.9400    0.0000 C   0  0  0  0  0  0  0  0  0  0  0  0
   10.6603    1.4400    0.0000 C   0  0  0  0  0  0  0  0  0  0  0  0
   13.2583   -0.0600    0.0000 C   0  0  0  0  0  0  0  0  0  0  0  0
   14.1244    1.4400    0.0000 C   0  0  0  0  0  0  0  0  0  0  0  0
   12.3923   -1.5600    0.0000 C   0  0  0  0  0  0  0  0  0  0  0  0
   15.8564    1.4400    0.0000 C   0  0  0  0  0  0  0  0  0  0  0  0
   14.1244   -1.5600    0.0000 C   0  0  0  0  0  0  0  0  0  0  0  0
   14.9904    2.9400    0.0000 C   0  0  0  0  0  0  0  0  0  0  0  0
   12.3923   -2.5600    0.0000 C   0  0  0  0  0  0  0  0  0  0  0  0
   16.7224    1.9400    0.0000 C   0  0  0  0  0  0  0  0  0  0  0  0
   13.2583   -3.0600    0.0000 C   0  0  0  0  0  0  0  0  0  0  0  0
   16.7224    2.9400    0.0000 C   0  0  0  0  0  0  0  0  0  0  0  0
   14.1244   -2.5600    0.0000 C   0  0  0  0  0  0  0  0  0  0  0  0
   15.8564    3.4400    0.0000 C   0  0  0  0  0  0  0  0  0  0  0  0
   11.5263   -1.0600    0.0000 C   0  0  0  0  0  0  0  0  0  0  0  0
   15.8564    0.4400    0.0000 C   0  0  0  0  0  0  0  0  0  0  0  0
   13.2583   -4.0600    0.0000 C   0  0  0  0  0  0  0  0  0  0  0  0
   17.5885    3.4400    0.0000 C   0  0  0  0  0  0  0  0  0  0  0  0
    5.8626    3.9150    0.0000 H   0  0  0  0  0  0  0  0  0  0  0  0
    5.0656    3.9150    0.0000 H   0  0  0  0  0  0  0  0  0  0  0  0
    4.1996    2.4651    0.0000 H   0  0  0  0  0  0  0  0  0  0  0  0
    4.9966    2.4651    0.0000 H   0  0  0  0  0  0  0  0  0  0  0  0
    5.9316    2.4651    0.0000 H   0  0  0  0  0  0  0  0  0  0  0  0
    6.7287    2.4651    0.0000 H   0  0  0  0  0  0  0  0  0  0  0  0
    4.1306    3.9150    0.0000 H   0  0  0  0  0  0  0  0  0  0  0  0
    3.3335    3.9150    0.0000 H   0  0  0  0  0  0  0  0  0  0  0  0
    7.5947    3.9150    0.0000 H   0  0  0  0  0  0  0  0  0  0  0  0
    6.7976    3.9150    0.0000 H   0  0  0  0  0  0  0  0  0  0  0  0
    2.4675    2.4651    0.0000 H   0  0  0  0  0  0  0  0  0  0  0  0
    3.2646    2.4651    0.0000 H   0  0  0  0  0  0  0  0  0  0  0  0
    7.6636    2.4651    0.0000 H   0  0  0  0  0  0  0  0  0  0  0  0
    8.4607    2.4651    0.0000 H   0  0  0  0  0  0  0  0  0  0  0  0
    2.3100    3.9769    0.0000 H   0  0  0  0  0  0  0  0  0  0  0  0
    1.4631    3.7500    0.0000 H   0  0  0  0  0  0  0  0  0  0  0  0
    1.6900    2.9031    0.0000 H   0  0  0  0  0  0  0  0  0  0  0  0
   10.6603    4.0600    0.0000 H   0  0  0  0  0  0  0  0  0  0  0  0
    9.2573    1.6300    0.0000 H   0  0  0  0  0  0  0  0  0  0  0  0
   10.6603    0.8200    0.0000 H   0  0  0  0  0  0  0  0  0  0  0  0
   14.6613   -1.2500    0.0000 H   0  0  0  0  0  0  0  0  0  0  0  0
   14.4534    3.2500    0.0000 H   0  0  0  0  0  0  0  0  0  0  0  0
   11.8554   -2.8700    0.0000 H   0  0  0  0  0  0  0  0  0  0  0  0
   17.2594    1.6300    0.0000 H   0  0  0  0  0  0  0  0  0  0  0  0
   14.6613   -2.8700    0.0000 H   0  0  0  0  0  0  0  0  0  0  0  0
   15.8564    4.0600    0.0000 H   0  0  0  0  0  0  0  0  0  0  0  0
   11.8363   -0.5231    0.0000 H   0  0  0  0  0  0  0  0  0  0  0  0
   10.9893   -0.7500    0.0000 H   0  0  0  0  0  0  0  0  0  0  0  0
   11.2163   -1.5969    0.0000 H   0  0  0  0  0  0  0  0  0  0  0  0
   15.2364    0.4400    0.0000 H   0  0  0  0  0  0  0  0  0  0  0  0
   15.8564   -0.1800    0.0000 H   0  0  0  0  0  0  0  0  0  0  0  0
   16.4764    0.4400    0.0000 H   0  0  0  0  0  0  0  0  0  0  0  0
   12.6383   -4.0600    0.0000 H   0  0  0  0  0  0  0  0  0  0  0  0
   13.2583   -4.6800    0.0000 H   0  0  0  0  0  0  0  0  0  0  0  0
   13.8783   -4.0600    0.0000 H   0  0  0  0  0  0  0  0  0  0  0  0
   17.8985    2.9031    0.0000 H   0  0  0  0  0  0  0  0  0  0  0  0
   18.1254    3.7500    0.0000 H   0  0  0  0  0  0  0  0  0  0  0  0
   17.2785    3.9769    0.0000 H   0  0  0  0  0  0  0  0  0  0  0  0
   12.3923    4.0600    0.0000 H   0  0  0  0  0  0  0  0  0  0  0  0
  1 12  1  0  0  0  0
  1 14  1  0  0  0  0
  2 18  1  0  0  0  0
  2 77  1  0  0  0  0
  3 19  2  0  0  0  0
  3 23  1  0  0  0  0
  4 19  1  0  0  0  0
  4 24  2  0  0  0  0
  5 23  2  0  0  0  0
  5 24  1  0  0  0  0
  6  7  1  0  0  0  0
  6  8  1  0  0  0  0
  6 39  1  0  0  0  0
  6 40  1  0  0  0  0
  7  9  1  0  0  0  0
  7 41  1  0  0  0  0
  7 42  1  0  0  0  0
  8 10  1  0  0  0  0
  8 43  1  0  0  0  0
  8 44  1  0  0  0  0
  9 11  1  0  0  0  0
  9 45  1  0  0  0  0
  9 46  1  0  0  0  0
 10 12  1  0  0  0  0
 10 47  1  0  0  0  0
 10 48  1  0  0  0  0
 11 13  1  0  0  0  0
 11 49  1  0  0  0  0
 11 50  1  0  0  0  0
 12 51  1  0  0  0  0
 12 52  1  0  0  0  0
 13 53  1  0  0  0  0
 13 54  1  0  0  0  0
 13 55  1  0  0  0  0
 14 16  2  0  0  0  0
 14 17  1  0  0  0  0
 15 18  2  0  0  0  0
 15 19  1  0  0  0  0
 15 22  1  0  0  0  0
 16 18  1  0  0  0  0
 16 56  1  0  0  0  0
 17 22  2  0  0  0  0
 17 57  1  0  0  0  0
 20 23  1  0  0  0  0
 20 25  2  0  0  0  0
 20 27  1  0  0  0  0
 21 24  1  0  0  0  0
 21 26  2  0  0  0  0
 21 28  1  0  0  0  0
 22 58  1  0  0  0  0
 25 29  1  0  0  0  0
 25 35  1  0  0  0  0
 26 30  1  0  0  0  0
 26 36  1  0  0  0  0
 27 33  2  0  0  0  0
 27 59  1  0  0  0  0
 28 34  2  0  0  0  0
 28 60  1  0  0  0  0
 29 31  2  0  0  0  0
 29 61  1  0  0  0  0
 30 32  2  0  0  0  0
 30 62  1  0  0  0  0
 31 33  1  0  0  0  0
 31 37  1  0  0  0  0
 32 34  1  0  0  0  0
 32 38  1  0  0  0  0
 33 63  1  0  0  0  0
 34 64  1  0  0  0  0
 35 65  1  0  0  0  0
 35 66  1  0  0  0  0
 35 67  1  0  0  0  0
 36 68  1  0  0  0  0
 36 69  1  0  0  0  0
 36 70  1  0  0  0  0
 37 71  1  0  0  0  0
 37 72  1  0  0  0  0
 37 73  1  0  0  0  0
 38 74  1  0  0  0  0
 38 75  1  0  0  0  0
 38 76  1  0  0  0  0
M  END
> <PUBCHEM_COMPOUND_CID>
135414248

> <PUBCHEM_COMPOUND_CANONICALIZED>
1

> <PUBCHEM_CACTVS_COMPLEXITY>
643

> <PUBCHEM_CACTVS_HBOND_ACCEPTOR>
5

> <PUBCHEM_CACTVS_HBOND_DONOR>
1

> <PUBCHEM_CACTVS_ROTATABLE_BOND>
11

> <PUBCHEM_CACTVS_SUBSKEYS>
AAADcfB/MAAAAAAAAAAAAAAAAAAAAAAAAAA8YMEAAAAAAAAB1AAAHgAACAAADAShmwIzFoYIFgCgAiJiJACCiAkgIKAJiCAmDJiML6KGuRuGeCjvwBeIuAeQ8O4O4AACCAAYAADAAAQQADAAAAAAAAAAAA==

> <PUBCHEM_IUPAC_OPENEYE_NAME>
2-[4,6-bis(2,4-dimethylphenyl)-1,3,5-triazin-2-yl]-5-octoxy-phenol

> <PUBCHEM_IUPAC_CAS_NAME>
2-[4,6-bis(2,4-dimethylphenyl)-1,3,5-triazin-2-yl]-5-octoxyphenol

> <PUBCHEM_IUPAC_NAME_MARKUP>
2-[4,6-bis(2,4-dimethylphenyl)-1,3,5-triazin-2-yl]-5-octoxyphenol

> <PUBCHEM_IUPAC_NAME>
2-[4,6-bis(2,4-dimethylphenyl)-1,3,5-triazin-2-yl]-5-octoxyphenol

> <PUBCHEM_IUPAC_SYSTEMATIC_NAME>
2-[4,6-bis(2,4-dimethylphenyl)-1,3,5-triazin-2-yl]-5-octoxy-phenol

> <PUBCHEM_IUPAC_TRADITIONAL_NAME>
2-[4,6-bis(2,4-dimethylphenyl)-s-triazin-2-yl]-5-octoxy-phenol

> <PUBCHEM_IUPAC_INCHI>
InChI=1S/C33H39N3O2/c1-6-7-8-9-10-11-18-38-26-14-17-29(30(37)21-26)33-35-31(27-15-12-22(2)19-24(27)4)34-32(36-33)28-16-13-23(3)20-25(28)5/h12-17,19-21,37H,6-11,18H2,1-5H3

> <PUBCHEM_IUPAC_INCHIKEY>
ZSSVCEUEVMALRD-UHFFFAOYSA-N

> <PUBCHEM_XLOGP3_AA>
9.5

> <PUBCHEM_EXACT_MASS>
509.30422750

> <PUBCHEM_MOLECULAR_FORMULA>
C33H39N3O2

> <PUBCHEM_MOLECULAR_WEIGHT>
509.7

> <PUBCHEM_SMILES>
CCCCCCCCOC1=CC(=C(C=C1)C2=NC(=NC(=N2)C3=C(C=C(C=C3)C)C)C4=C(C=C(C=C4)C)C)O

> <PUBCHEM_OPENEYE_CAN_SMILES>
CCCCCCCCOC1=CC(=C(C=C1)C2=NC(=NC(=N2)C3=C(C=C(C=C3)C)C)C4=C(C=C(C=C4)C)C)O

> <PUBCHEM_OPENEYE_ISO_SMILES>
CCCCCCCCOC1=CC(=C(C=C1)C2=NC(=NC(=N2)C3=C(C=C(C=C3)C)C)C4=C(C=C(C=C4)C)C)O

> <PUBCHEM_CACTVS_TPSA>
68.1

> <PUBCHEM_MONOISOTOPIC_WEIGHT>
509.30422750

> <PUBCHEM_TOTAL_CHARGE>
0

> <PUBCHEM_HEAVY_ATOM_COUNT>
38

> <PUBCHEM_ATOM_DEF_STEREO_COUNT>
0

> <PUBCHEM_ATOM_UDEF_STEREO_COUNT>
0

> <PUBCHEM_BOND_DEF_STEREO_COUNT>
0

> <PUBCHEM_BOND_UDEF_STEREO_COUNT>
0

> <PUBCHEM_ISOTOPIC_ATOM_COUNT>
0

> <PUBCHEM_COMPONENT_COUNT>
1

> <PUBCHEM_CACTVS_TAUTO_COUNT>
-1

> <PUBCHEM_COORDINATE_TYPE>
1
5
255

> <PUBCHEM_BONDANNOTATIONS>
14  16  8
14  17  8
15  18  8
15  22  8
16  18  8
17  22  8
20  25  8
20  27  8
21  26  8
21  28  8
25  29  8
26  30  8
27  33  8
28  34  8
29  31  8
3  19  8
3  23  8
30  32  8
31  33  8
32  34  8
4  19  8
4  24  8
5  23  8
5  24  8

$$$$
