135401970
  -OEChem-04042512312D

 54 59  0     0  0  0  0  0  0999 V2000
    4.2142    1.7638    0.0000 O   0  0  0  0  0  0  0  0  0  0  0  0
    6.7312   -1.7515    0.0000 O   0  0  0  0  0  0  0  0  0  0  0  0
    3.9354    0.0038    0.0000 N   0  0  0  0  0  0  0  0  0  0  0  0
    7.0041    0.0038    0.0000 N   0  0  0  0  0  0  0  0  0  0  0  0
    5.4743    0.5038    0.0000 C   0  0  0  0  0  0  0  0  0  0  0  0
    5.4743   -0.4962    0.0000 C   0  0  0  0  0  0  0  0  0  0  0  0
    4.5232   -0.8053    0.0000 C   0  0  0  0  0  0  0  0  0  0  0  0
    6.4205    0.8085    0.0000 C   0  0  0  0  0  0  0  0  0  0  0  0
    4.5232    0.8128    0.0000 C   0  0  0  0  0  0  0  0  0  0  0  0
    4.2142   -1.7563    0.0000 C   0  0  0  0  0  0  0  0  0  0  0  0
    6.4205   -0.8010    0.0000 C   0  0  0  0  0  0  0  0  0  0  0  0
    6.7312    1.7590    0.0000 C   0  0  0  0  0  0  0  0  0  0  0  0
    3.2361   -1.9642    0.0000 C   0  0  0  0  0  0  0  0  0  0  0  0
    4.8834   -2.4995    0.0000 C   0  0  0  0  0  0  0  0  0  0  0  0
    6.0633    2.5033    0.0000 C   0  0  0  0  0  0  0  0  0  0  0  0
    7.7097    1.9652    0.0000 C   0  0  0  0  0  0  0  0  0  0  0  0
    3.5962   -3.6584    0.0000 C   0  0  0  0  0  0  0  0  0  0  0  0
    2.9270   -2.9153    0.0000 C   0  0  0  0  0  0  0  0  0  0  0  0
    4.5743   -3.4505    0.0000 C   0  0  0  0  0  0  0  0  0  0  0  0
    7.3525    3.6600    0.0000 C   0  0  0  0  0  0  0  0  0  0  0  0
    6.3740    3.4538    0.0000 C   0  0  0  0  0  0  0  0  0  0  0  0
    8.0203    2.9157    0.0000 C   0  0  0  0  0  0  0  0  0  0  0  0
    3.2872   -4.6095    0.0000 C   0  0  0  0  0  0  0  0  0  0  0  0
    7.6632    4.6106    0.0000 C   0  0  0  0  0  0  0  0  0  0  0  0
    2.3090   -4.8174    0.0000 C   0  0  0  0  0  0  0  0  0  0  0  0
    3.9563   -5.3526    0.0000 C   0  0  0  0  0  0  0  0  0  0  0  0
    6.9953    5.3549    0.0000 C   0  0  0  0  0  0  0  0  0  0  0  0
    8.6417    4.8168    0.0000 C   0  0  0  0  0  0  0  0  0  0  0  0
    2.0000   -5.7685    0.0000 C   0  0  0  0  0  0  0  0  0  0  0  0
    3.6473   -6.3037    0.0000 C   0  0  0  0  0  0  0  0  0  0  0  0
    7.3060    6.3054    0.0000 C   0  0  0  0  0  0  0  0  0  0  0  0
    8.9523    5.7673    0.0000 C   0  0  0  0  0  0  0  0  0  0  0  0
    2.6691   -6.5116    0.0000 C   0  0  0  0  0  0  0  0  0  0  0  0
    8.2845    6.5116    0.0000 C   0  0  0  0  0  0  0  0  0  0  0  0
    3.3154    0.0038    0.0000 H   0  0  0  0  0  0  0  0  0  0  0  0
    2.8212   -1.5035    0.0000 H   0  0  0  0  0  0  0  0  0  0  0  0
    5.4898   -2.3706    0.0000 H   0  0  0  0  0  0  0  0  0  0  0  0
    5.4566    2.3754    0.0000 H   0  0  0  0  0  0  0  0  0  0  0  0
    8.1237    1.5038    0.0000 H   0  0  0  0  0  0  0  0  0  0  0  0
    2.3206   -3.0442    0.0000 H   0  0  0  0  0  0  0  0  0  0  0  0
    4.9892   -3.9113    0.0000 H   0  0  0  0  0  0  0  0  0  0  0  0
    5.9599    3.9153    0.0000 H   0  0  0  0  0  0  0  0  0  0  0  0
    8.6270    3.0436    0.0000 H   0  0  0  0  0  0  0  0  0  0  0  0
    3.6078    1.8927    0.0000 H   0  0  0  0  0  0  0  0  0  0  0  0
    1.8942   -4.3566    0.0000 H   0  0  0  0  0  0  0  0  0  0  0  0
    4.5628   -5.2237    0.0000 H   0  0  0  0  0  0  0  0  0  0  0  0
    6.3886    5.2270    0.0000 H   0  0  0  0  0  0  0  0  0  0  0  0
    9.0557    4.3553    0.0000 H   0  0  0  0  0  0  0  0  0  0  0  0
    1.3936   -5.8974    0.0000 H   0  0  0  0  0  0  0  0  0  0  0  0
    4.0621   -6.7644    0.0000 H   0  0  0  0  0  0  0  0  0  0  0  0
    6.8919    6.7668    0.0000 H   0  0  0  0  0  0  0  0  0  0  0  0
    9.5590    5.8952    0.0000 H   0  0  0  0  0  0  0  0  0  0  0  0
    2.4775   -7.1013    0.0000 H   0  0  0  0  0  0  0  0  0  0  0  0
    8.4771    7.1009    0.0000 H   0  0  0  0  0  0  0  0  0  0  0  0
  1  9  1  0  0  0  0
  1 44  1  0  0  0  0
  2 11  2  0  0  0  0
  3  7  1  0  0  0  0
  3  9  1  0  0  0  0
  3 35  1  0  0  0  0
  4  8  2  0  0  0  0
  4 11  1  0  0  0  0
  5  6  1  0  0  0  0
  5  8  1  0  0  0  0
  5  9  2  0  0  0  0
  6  7  2  0  0  0  0
  6 11  1  0  0  0  0
  7 10  1  0  0  0  0
  8 12  1  0  0  0  0
 10 13  2  0  0  0  0
 10 14  1  0  0  0  0
 12 15  2  0  0  0  0
 12 16  1  0  0  0  0
 13 18  1  0  0  0  0
 13 36  1  0  0  0  0
 14 19  2  0  0  0  0
 14 37  1  0  0  0  0
 15 21  1  0  0  0  0
 15 38  1  0  0  0  0
 16 22  2  0  0  0  0
 16 39  1  0  0  0  0
 17 18  2  0  0  0  0
 17 19  1  0  0  0  0
 17 23  1  0  0  0  0
 18 40  1  0  0  0  0
 19 41  1  0  0  0  0
 20 21  2  0  0  0  0
 20 22  1  0  0  0  0
 20 24  1  0  0  0  0
 21 42  1  0  0  0  0
 22 43  1  0  0  0  0
 23 25  2  0  0  0  0
 23 26  1  0  0  0  0
 24 27  2  0  0  0  0
 24 28  1  0  0  0  0
 25 29  1  0  0  0  0
 25 45  1  0  0  0  0
 26 30  2  0  0  0  0
 26 46  1  0  0  0  0
 27 31  1  0  0  0  0
 27 47  1  0  0  0  0
 28 32  2  0  0  0  0
 28 48  1  0  0  0  0
 29 33  2  0  0  0  0
 29 49  1  0  0  0  0
 30 33  1  0  0  0  0
 30 50  1  0  0  0  0
 31 34  2  0  0  0  0
 31 51  1  0  0  0  0
 32 34  1  0  0  0  0
 32 52  1  0  0  0  0
 33 53  1  0  0  0  0
 34 54  1  0  0  0  0
M  END
> <PUBCHEM_COMPOUND_CID>
135401970

> <PUBCHEM_COMPOUND_CANONICALIZED>
1

> <PUBCHEM_CACTVS_COMPLEXITY>
737

> <PUBCHEM_CACTVS_HBOND_ACCEPTOR>
2

> <PUBCHEM_CACTVS_HBOND_DONOR>
2

> <PUBCHEM_CACTVS_ROTATABLE_BOND>
4

> <PUBCHEM_CACTVS_SUBSKEYS>
AAADceB7MAAAAAAAAAAAAAAAAAAAAWIAAAAwYMGAAAAQAAAB1AAAHgAQCAAADAiBngAwhJLJkgCoAyVyVACCgCAlICAImSEkTN0IJvrC1ZOEcYhkwBHI2Ue+yPCOwAAAAAAAAACAAAAAAAAAAAAAAAAAAA==

> <PUBCHEM_IUPAC_OPENEYE_NAME>
3-hydroxy-1,4-bis(4-phenylphenyl)-2H-pyrrolo[3,4-c]pyrrol-6-one

> <PUBCHEM_IUPAC_CAS_NAME>
3-hydroxy-1,4-bis(4-phenylphenyl)-2H-pyrrolo[3,4-c]pyrrol-6-one

> <PUBCHEM_IUPAC_NAME_MARKUP>
3-hydroxy-1,4-bis(4-phenylphenyl)-2<I>H</I>-pyrrolo[3,4-c]pyrrol-6-one

> <PUBCHEM_IUPAC_NAME>
3-hydroxy-1,4-bis(4-phenylphenyl)-2H-pyrrolo[3,4-c]pyrrol-6-one

> <PUBCHEM_IUPAC_SYSTEMATIC_NAME>
3-oxidanyl-1,4-bis(4-phenylphenyl)-2H-pyrrolo[3,4-c]pyrrol-6-one

> <PUBCHEM_IUPAC_TRADITIONAL_NAME>
3-hydroxy-1,4-bis(4-phenylphenyl)-2H-pyrrolo[3,4-c]pyrrol-6-one

> <PUBCHEM_IUPAC_INCHI>
InChI=1S/C30H20N2O2/c33-29-25-26(28(32-29)24-17-13-22(14-18-24)20-9-5-2-6-10-20)30(34)31-27(25)23-15-11-21(12-16-23)19-7-3-1-4-8-19/h1-18,31,34H

> <PUBCHEM_IUPAC_INCHIKEY>
PBEFQMYEANTVGS-UHFFFAOYSA-N

> <PUBCHEM_XLOGP3_AA>
6.6

> <PUBCHEM_EXACT_MASS>
440.152477885

> <PUBCHEM_MOLECULAR_FORMULA>
C30H20N2O2

> <PUBCHEM_MOLECULAR_WEIGHT>
440.5

> <PUBCHEM_SMILES>
C1=CC=C(C=C1)C2=CC=C(C=C2)C3=C4C(=C(N3)O)C(=NC4=O)C5=CC=C(C=C5)C6=CC=CC=C6

> <PUBCHEM_OPENEYE_CAN_SMILES>
C1=CC=C(C=C1)C2=CC=C(C=C2)C3=C4C(=C(N3)O)C(=NC4=O)C5=CC=C(C=C5)C6=CC=CC=C6

> <PUBCHEM_OPENEYE_ISO_SMILES>
C1=CC=C(C=C1)C2=CC=C(C=C2)C3=C4C(=C(N3)O)C(=NC4=O)C5=CC=C(C=C5)C6=CC=CC=C6

> <PUBCHEM_CACTVS_TPSA>
65.5

> <PUBCHEM_MONOISOTOPIC_WEIGHT>
440.152477885

> <PUBCHEM_TOTAL_CHARGE>
0

> <PUBCHEM_HEAVY_ATOM_COUNT>
34

> <PUBCHEM_ATOM_DEF_STEREO_COUNT>
0

> <PUBCHEM_ATOM_UDEF_STEREO_COUNT>
0

> <PUBCHEM_BOND_DEF_STEREO_COUNT>
0

> <PUBCHEM_BOND_UDEF_STEREO_COUNT>
0

> <PUBCHEM_ISOTOPIC_ATOM_COUNT>
0

> <PUBCHEM_COMPONENT_COUNT>
1

> <PUBCHEM_CACTVS_TAUTO_COUNT>
-1

> <PUBCHEM_COORDINATE_TYPE>
1
5
255

> <PUBCHEM_BONDANNOTATIONS>
10  13  8
10  14  8
12  15  8
12  16  8
13  18  8
14  19  8
15  21  8
16  22  8
17  18  8
17  19  8
20  21  8
20  22  8
23  25  8
23  26  8
24  27  8
24  28  8
25  29  8
26  30  8
27  31  8
28  32  8
29  33  8
3  7  8
3  9  8
30  33  8
31  34  8
32  34  8
5  6  8
5  9  8
6  7  8

$$$$
