135565738
  -OEChem-04042512212D

 44 45  0     0  0  0  0  0  0999 V2000
    2.0000   -1.1941    0.0000 Sr  0  2  0  0  0  0  0  0  0  0  0  0
    5.4641   -4.1941    0.0000 Cl  0  0  0  0  0  0  0  0  0  0  0  0
    3.7320   -1.1941    0.0000 S   0  0  0  0  0  0  0  0  0  0  0  0
    9.8602    3.3300    0.0000 S   0  0  0  0  0  0  0  0  0  0  0  0
    4.5981    1.3059    0.0000 O   0  0  0  0  0  0  0  0  0  0  0  0
    2.8660   -0.6941    0.0000 O   0  5  0  0  0  0  0  0  0  0  0  0
    3.2320   -2.0602    0.0000 O   0  0  0  0  0  0  0  0  0  0  0  0
    4.2320   -0.3281    0.0000 O   0  0  0  0  0  0  0  0  0  0  0  0
   10.7243    3.8334    0.0000 O   0  5  0  0  0  0  0  0  0  0  0  0
   10.3636    2.4659    0.0000 O   0  0  0  0  0  0  0  0  0  0  0  0
    9.3569    4.1941    0.0000 O   0  0  0  0  0  0  0  0  0  0  0  0
    6.3301    0.3059    0.0000 N   0  0  0  0  0  0  0  0  0  0  0  0
    5.4641   -0.1941    0.0000 N   0  0  0  0  0  0  0  0  0  0  0  0
    7.1962    1.8059    0.0000 C   0  0  0  0  0  0  0  0  0  0  0  0
    7.1962    2.8059    0.0000 C   0  0  0  0  0  0  0  0  0  0  0  0
    6.3301   -2.6941    0.0000 C   0  0  0  0  0  0  0  0  0  0  0  0
    6.3301    1.3059    0.0000 C   0  0  0  0  0  0  0  0  0  0  0  0
    5.4641   -1.1941    0.0000 C   0  0  0  0  0  0  0  0  0  0  0  0
    8.0901    3.3405    0.0000 C   0  0  0  0  0  0  0  0  0  0  0  0
    7.1962   -3.1941    0.0000 C   0  0  0  0  0  0  0  0  0  0  0  0
    4.5981   -1.6941    0.0000 C   0  0  0  0  0  0  0  0  0  0  0  0
    8.9962    2.8267    0.0000 C   0  0  0  0  0  0  0  0  0  0  0  0
    8.0901    1.2712    0.0000 C   0  0  0  0  0  0  0  0  0  0  0  0
    6.3301   -1.6941    0.0000 C   0  0  0  0  0  0  0  0  0  0  0  0
    6.3301    3.3059    0.0000 C   0  0  0  0  0  0  0  0  0  0  0  0
    5.4641   -3.1941    0.0000 C   0  0  0  0  0  0  0  0  0  0  0  0
    8.9962    1.7851    0.0000 C   0  0  0  0  0  0  0  0  0  0  0  0
    5.4641    1.8059    0.0000 C   0  0  0  0  0  0  0  0  0  0  0  0
    4.5981   -2.6941    0.0000 C   0  0  0  0  0  0  0  0  0  0  0  0
    5.4641    2.8059    0.0000 C   0  0  0  0  0  0  0  0  0  0  0  0
    7.1962   -4.1941    0.0000 C   0  0  0  0  0  0  0  0  0  0  0  0
    7.8067   -3.3018    0.0000 H   0  0  0  0  0  0  0  0  0  0  0  0
    7.4082   -2.6115    0.0000 H   0  0  0  0  0  0  0  0  0  0  0  0
    8.0829    3.9605    0.0000 H   0  0  0  0  0  0  0  0  0  0  0  0
    8.0829    0.6513    0.0000 H   0  0  0  0  0  0  0  0  0  0  0  0
    6.8671   -1.3841    0.0000 H   0  0  0  0  0  0  0  0  0  0  0  0
    6.3301    3.9259    0.0000 H   0  0  0  0  0  0  0  0  0  0  0  0
    9.5319    1.4730    0.0000 H   0  0  0  0  0  0  0  0  0  0  0  0
    4.0611   -3.0041    0.0000 H   0  0  0  0  0  0  0  0  0  0  0  0
    4.9272    3.1159    0.0000 H   0  0  0  0  0  0  0  0  0  0  0  0
    6.5762   -4.1941    0.0000 H   0  0  0  0  0  0  0  0  0  0  0  0
    7.1962   -4.8141    0.0000 H   0  0  0  0  0  0  0  0  0  0  0  0
    7.8162   -4.1941    0.0000 H   0  0  0  0  0  0  0  0  0  0  0  0
    4.0611    1.6159    0.0000 H   0  0  0  0  0  0  0  0  0  0  0  0
  2 26  1  0  0  0  0
  3  6  1  0  0  0  0
  3  7  2  0  0  0  0
  3  8  2  0  0  0  0
  3 21  1  0  0  0  0
  4  9  1  0  0  0  0
  4 10  2  0  0  0  0
  4 11  2  0  0  0  0
  4 22  1  0  0  0  0
  5 28  1  0  0  0  0
  5 44  1  0  0  0  0
 12 13  2  0  0  0  0
 12 17  1  0  0  0  0
 13 18  1  0  0  0  0
 14 15  2  0  0  0  0
 14 17  1  0  0  0  0
 14 23  1  0  0  0  0
 15 19  1  0  0  0  0
 15 25  1  0  0  0  0
 16 20  1  0  0  0  0
 16 24  2  0  0  0  0
 16 26  1  0  0  0  0
 17 28  2  0  0  0  0
 18 21  2  0  0  0  0
 18 24  1  0  0  0  0
 19 22  2  0  0  0  0
 19 34  1  0  0  0  0
 20 31  1  0  0  0  0
 20 32  1  0  0  0  0
 20 33  1  0  0  0  0
 21 29  1  0  0  0  0
 22 27  1  0  0  0  0
 23 27  2  0  0  0  0
 23 35  1  0  0  0  0
 24 36  1  0  0  0  0
 25 30  2  0  0  0  0
 25 37  1  0  0  0  0
 26 29  2  0  0  0  0
 27 38  1  0  0  0  0
 28 30  1  0  0  0  0
 29 39  1  0  0  0  0
 30 40  1  0  0  0  0
 31 41  1  0  0  0  0
 31 42  1  0  0  0  0
 31 43  1  0  0  0  0
M  CHG  3   1   2   6  -1   9  -1
M  END
> <PUBCHEM_COMPOUND_CID>
135565738

> <PUBCHEM_COMPOUND_CANONICALIZED>
1

> <PUBCHEM_CACTVS_COMPLEXITY>
813

> <PUBCHEM_CACTVS_HBOND_ACCEPTOR>
9

> <PUBCHEM_CACTVS_HBOND_DONOR>
1

> <PUBCHEM_CACTVS_ROTATABLE_BOND>
3

> <PUBCHEM_CACTVS_SUBSKEYS>
AAADccB7OABkAAAABAAAAAAAAAAAAAAAAAAwYMAAAAAAAADBVAAAHgYICAAADA6B2CAyx8AAAgKCAiRCQHDCAEAgJwAIiBwHbogKJiKTk5OAcABkwBEI2AeQwLAOsABBwBATEQBgAIOAICYiAAAAAAAAAA==

> <PUBCHEM_IUPAC_OPENEYE_NAME>
strontium;5-(4-chloro-5-ethyl-2-sulfonato-phenyl)azo-6-hydroxy-naphthalene-2-sulfonate

> <PUBCHEM_IUPAC_CAS_NAME>
strontium;5-(4-chloro-5-ethyl-2-sulfonatophenyl)azo-6-hydroxy-2-naphthalenesulfonate

> <PUBCHEM_IUPAC_NAME_MARKUP>
strontium;5-[(4-chloro-5-ethyl-2-sulfonatophenyl)diazenyl]-6-hydroxynaphthalene-2-sulfonate

> <PUBCHEM_IUPAC_NAME>
strontium;5-[(4-chloro-5-ethyl-2-sulfonatophenyl)diazenyl]-6-hydroxynaphthalene-2-sulfonate

> <PUBCHEM_IUPAC_SYSTEMATIC_NAME>
strontium;5-[(4-chloranyl-5-ethyl-2-sulfonato-phenyl)diazenyl]-6-oxidanyl-naphthalene-2-sulfonate

> <PUBCHEM_IUPAC_TRADITIONAL_NAME>
strontium;5-(4-chloro-5-ethyl-2-sulfonato-phenyl)azo-6-hydroxy-naphthalene-2-sulfonate

> <PUBCHEM_IUPAC_INCHI>
InChI=1S/C18H15ClN2O7S2.Sr/c1-2-10-8-15(17(9-14(10)19)30(26,27)28)20-21-18-13-5-4-12(29(23,24)25)7-11(13)3-6-16(18)22;/h3-9,22H,2H2,1H3,(H,23,24,25)(H,26,27,28);/q;+2/p-2

> <PUBCHEM_IUPAC_INCHIKEY>
ILKNVGJSWRNEOC-UHFFFAOYSA-L

> <PUBCHEM_EXACT_MASS>
555.8908831

> <PUBCHEM_MOLECULAR_FORMULA>
C18H13ClN2O7S2Sr

> <PUBCHEM_MOLECULAR_WEIGHT>
556.5

> <PUBCHEM_SMILES>
CCC1=CC(=C(C=C1Cl)S(=O)(=O)[O-])N=NC2=C(C=CC3=C2C=CC(=C3)S(=O)(=O)[O-])O.[Sr+2]

> <PUBCHEM_OPENEYE_CAN_SMILES>
CCC1=CC(=C(C=C1Cl)S(=O)(=O)[O-])N=NC2=C(C=CC3=C2C=CC(=C3)S(=O)(=O)[O-])O.[Sr+2]

> <PUBCHEM_OPENEYE_ISO_SMILES>
CCC1=CC(=C(C=C1Cl)S(=O)(=O)[O-])N=NC2=C(C=CC3=C2C=CC(=C3)S(=O)(=O)[O-])O.[Sr+2]

> <PUBCHEM_CACTVS_TPSA>
176

> <PUBCHEM_MONOISOTOPIC_WEIGHT>
555.8908831

> <PUBCHEM_TOTAL_CHARGE>
0

> <PUBCHEM_HEAVY_ATOM_COUNT>
31

> <PUBCHEM_ATOM_DEF_STEREO_COUNT>
0

> <PUBCHEM_ATOM_UDEF_STEREO_COUNT>
0

> <PUBCHEM_BOND_DEF_STEREO_COUNT>
0

> <PUBCHEM_BOND_UDEF_STEREO_COUNT>
0

> <PUBCHEM_ISOTOPIC_ATOM_COUNT>
0

> <PUBCHEM_COMPONENT_COUNT>
2

> <PUBCHEM_CACTVS_TAUTO_COUNT>
-1

> <PUBCHEM_COORDINATE_TYPE>
1
5
255

> <PUBCHEM_BONDANNOTATIONS>
14  15  8
14  17  8
14  23  8
15  19  8
15  25  8
16  24  8
16  26  8
17  28  8
18  21  8
18  24  8
19  22  8
21  29  8
22  27  8
23  27  8
25  30  8
26  29  8
28  30  8

$$$$
