135509887
  -OEChem-04042512282D

100104  0     0  0  0  0  0  0999 V2000
    2.0000   -3.0000    0.0000 O   0  0  0  0  0  0  0  0  0  0  0  0
    5.4641   -5.0000    0.0000 O   0  0  0  0  0  0  0  0  0  0  0  0
    2.8660   -0.5000    0.0000 O   0  0  0  0  0  0  0  0  0  0  0  0
    7.1962   -2.0000    0.0000 O   0  0  0  0  0  0  0  0  0  0  0  0
    6.3301   -0.5000    0.0000 O   0  0  0  0  0  0  0  0  0  0  0  0
    9.7942   -0.5000    0.0000 O   0  0  0  0  0  0  0  0  0  0  0  0
    6.3301    5.5000    0.0000 O   0  0  0  0  0  0  0  0  0  0  0  0
    8.9282   -2.0000    0.0000 O   0  0  0  0  0  0  0  0  0  0  0  0
    5.4641    4.0000    0.0000 O   0  0  0  0  0  0  0  0  0  0  0  0
    3.7320   -3.0000    0.0000 N   0  0  0  0  0  0  0  0  0  0  0  0
    6.3301   -3.5000    0.0000 N   0  0  0  0  0  0  0  0  0  0  0  0
    4.5981   -0.5000    0.0000 N   0  0  0  0  0  0  0  0  0  0  0  0
    8.9282   -3.0000    0.0000 N   0  0  0  0  0  0  0  0  0  0  0  0
    6.3301    1.5000    0.0000 N   0  0  0  0  0  0  0  0  0  0  0  0
    9.7942   -3.5000    0.0000 N   0  0  0  0  0  0  0  0  0  0  0  0
    6.3301    2.5000    0.0000 N   0  0  0  0  0  0  0  0  0  0  0  0
    7.1962   -7.0000    0.0000 N   0  0  0  0  0  0  0  0  0  0  0  0
    2.0000    2.0000    0.0000 N   0  0  0  0  0  0  0  0  0  0  0  0
    4.5981   -3.5000    0.0000 C   0  0  0  0  0  0  0  0  0  0  0  0
    3.7320   -2.0000    0.0000 C   0  0  0  0  0  0  0  0  0  0  0  0
    5.4641   -3.0000    0.0000 C   0  0  0  0  0  0  0  0  0  0  0  0
    4.5981   -1.5000    0.0000 C   0  0  0  0  0  0  0  0  0  0  0  0
    2.8660   -3.5000    0.0000 C   0  0  0  0  0  0  0  0  0  0  0  0
    6.3301   -4.5000    0.0000 C   0  0  0  0  0  0  0  0  0  0  0  0
    3.7320   -0.0000    0.0000 C   0  0  0  0  0  0  0  0  0  0  0  0
    7.1962   -3.0000    0.0000 C   0  0  0  0  0  0  0  0  0  0  0  0
    5.4641    0.0000    0.0000 C   0  0  0  0  0  0  0  0  0  0  0  0
    2.8660   -4.5000    0.0000 C   0  0  0  0  0  0  0  0  0  0  0  0
    8.0622   -3.5000    0.0000 C   0  0  0  0  0  0  0  0  0  0  0  0
    5.4641    1.0000    0.0000 C   0  0  0  0  0  0  0  0  0  0  0  0
    8.0622   -4.5000    0.0000 C   0  0  0  0  0  0  0  0  0  0  0  0
    4.5981    1.5000    0.0000 C   0  0  0  0  0  0  0  0  0  0  0  0
    7.1962   -5.0000    0.0000 C   0  0  0  0  0  0  0  0  0  0  0  0
    3.7320    1.0000    0.0000 C   0  0  0  0  0  0  0  0  0  0  0  0
    2.0000   -5.0000    0.0000 C   0  0  0  0  0  0  0  0  0  0  0  0
    3.7320   -5.0000    0.0000 C   0  0  0  0  0  0  0  0  0  0  0  0
    8.9282   -5.0000    0.0000 C   0  0  0  0  0  0  0  0  0  0  0  0
    4.5981    2.5000    0.0000 C   0  0  0  0  0  0  0  0  0  0  0  0
    2.0000   -6.0000    0.0000 C   0  0  0  0  0  0  0  0  0  0  0  0
    3.7320   -6.0000    0.0000 C   0  0  0  0  0  0  0  0  0  0  0  0
    7.1962   -6.0000    0.0000 C   0  0  0  0  0  0  0  0  0  0  0  0
    2.8660    1.5000    0.0000 C   0  0  0  0  0  0  0  0  0  0  0  0
    2.8660   -6.5000    0.0000 C   0  0  0  0  0  0  0  0  0  0  0  0
   10.6603   -3.0000    0.0000 C   0  0  0  0  0  0  0  0  0  0  0  0
    7.1962    3.0000    0.0000 C   0  0  0  0  0  0  0  0  0  0  0  0
   10.6603   -2.0000    0.0000 C   0  0  0  0  0  0  0  0  0  0  0  0
    7.1962    4.0000    0.0000 C   0  0  0  0  0  0  0  0  0  0  0  0
   11.5263   -3.5000    0.0000 C   0  0  0  0  0  0  0  0  0  0  0  0
    8.0622    2.5000    0.0000 C   0  0  0  0  0  0  0  0  0  0  0  0
   11.5263   -1.5000    0.0000 C   0  0  0  0  0  0  0  0  0  0  0  0
    8.0622    4.5000    0.0000 C   0  0  0  0  0  0  0  0  0  0  0  0
   12.3923   -3.0000    0.0000 C   0  0  0  0  0  0  0  0  0  0  0  0
    8.9282    3.0000    0.0000 C   0  0  0  0  0  0  0  0  0  0  0  0
   12.3923   -2.0000    0.0000 C   0  0  0  0  0  0  0  0  0  0  0  0
    8.9282    4.0000    0.0000 C   0  0  0  0  0  0  0  0  0  0  0  0
    9.7942   -1.5000    0.0000 C   0  0  0  0  0  0  0  0  0  0  0  0
    6.3301    4.5000    0.0000 C   0  0  0  0  0  0  0  0  0  0  0  0
   10.6603   -0.0000    0.0000 C   0  0  0  0  0  0  0  0  0  0  0  0
    5.4641    6.0000    0.0000 C   0  0  0  0  0  0  0  0  0  0  0  0
   10.6603    1.0000    0.0000 C   0  0  0  0  0  0  0  0  0  0  0  0
    5.4641    7.0000    0.0000 C   0  0  0  0  0  0  0  0  0  0  0  0
    4.1996   -3.9750    0.0000 H   0  0  0  0  0  0  0  0  0  0  0  0
    4.9966   -3.9750    0.0000 H   0  0  0  0  0  0  0  0  0  0  0  0
    3.5200   -1.4174    0.0000 H   0  0  0  0  0  0  0  0  0  0  0  0
    3.1215   -2.1077    0.0000 H   0  0  0  0  0  0  0  0  0  0  0  0
    5.8626   -2.5250    0.0000 H   0  0  0  0  0  0  0  0  0  0  0  0
    5.0656   -2.5250    0.0000 H   0  0  0  0  0  0  0  0  0  0  0  0
    4.8101   -2.0826    0.0000 H   0  0  0  0  0  0  0  0  0  0  0  0
    5.2087   -1.3923    0.0000 H   0  0  0  0  0  0  0  0  0  0  0  0
    1.4631   -4.6900    0.0000 H   0  0  0  0  0  0  0  0  0  0  0  0
    4.2690   -4.6900    0.0000 H   0  0  0  0  0  0  0  0  0  0  0  0
    8.6182   -5.5369    0.0000 H   0  0  0  0  0  0  0  0  0  0  0  0
    9.4651   -5.3100    0.0000 H   0  0  0  0  0  0  0  0  0  0  0  0
    9.2382   -4.4631    0.0000 H   0  0  0  0  0  0  0  0  0  0  0  0
    5.2181    2.5000    0.0000 H   0  0  0  0  0  0  0  0  0  0  0  0
    4.5981    3.1200    0.0000 H   0  0  0  0  0  0  0  0  0  0  0  0
    3.9781    2.5000    0.0000 H   0  0  0  0  0  0  0  0  0  0  0  0
    5.4641   -5.6200    0.0000 H   0  0  0  0  0  0  0  0  0  0  0  0
    2.3291   -0.1900    0.0000 H   0  0  0  0  0  0  0  0  0  0  0  0
    1.4631   -6.3100    0.0000 H   0  0  0  0  0  0  0  0  0  0  0  0
    4.2690   -6.3100    0.0000 H   0  0  0  0  0  0  0  0  0  0  0  0
    2.8660   -7.1200    0.0000 H   0  0  0  0  0  0  0  0  0  0  0  0
   11.5263   -4.1200    0.0000 H   0  0  0  0  0  0  0  0  0  0  0  0
    8.0622    1.8800    0.0000 H   0  0  0  0  0  0  0  0  0  0  0  0
   11.5263   -0.8800    0.0000 H   0  0  0  0  0  0  0  0  0  0  0  0
    8.0622    5.1200    0.0000 H   0  0  0  0  0  0  0  0  0  0  0  0
   12.9292   -3.3100    0.0000 H   0  0  0  0  0  0  0  0  0  0  0  0
    9.4651    2.6900    0.0000 H   0  0  0  0  0  0  0  0  0  0  0  0
   12.9292   -1.6900    0.0000 H   0  0  0  0  0  0  0  0  0  0  0  0
    9.4651    4.3100    0.0000 H   0  0  0  0  0  0  0  0  0  0  0  0
   10.8723   -0.5826    0.0000 H   0  0  0  0  0  0  0  0  0  0  0  0
   11.2708    0.1077    0.0000 H   0  0  0  0  0  0  0  0  0  0  0  0
    4.8535    6.1077    0.0000 H   0  0  0  0  0  0  0  0  0  0  0  0
    5.2520    5.4174    0.0000 H   0  0  0  0  0  0  0  0  0  0  0  0
   11.2803    1.0000    0.0000 H   0  0  0  0  0  0  0  0  0  0  0  0
   10.6603    1.6200    0.0000 H   0  0  0  0  0  0  0  0  0  0  0  0
   10.0403    1.0000    0.0000 H   0  0  0  0  0  0  0  0  0  0  0  0
    6.0841    7.0000    0.0000 H   0  0  0  0  0  0  0  0  0  0  0  0
    5.4641    7.6200    0.0000 H   0  0  0  0  0  0  0  0  0  0  0  0
    4.8441    7.0000    0.0000 H   0  0  0  0  0  0  0  0  0  0  0  0
  1 23  2  0  0  0  0
  2 24  1  0  0  0  0
  2 78  1  0  0  0  0
  3 25  1  0  0  0  0
  3 79  1  0  0  0  0
  4 26  2  0  0  0  0
  5 27  2  0  0  0  0
  6 56  1  0  0  0  0
  6 58  1  0  0  0  0
  7 57  1  0  0  0  0
  7 59  1  0  0  0  0
  8 56  2  0  0  0  0
  9 57  2  0  0  0  0
 10 19  1  0  0  0  0
 10 20  1  0  0  0  0
 10 23  1  0  0  0  0
 11 21  1  0  0  0  0
 11 24  1  0  0  0  0
 11 26  1  0  0  0  0
 12 22  1  0  0  0  0
 12 25  1  0  0  0  0
 12 27  1  0  0  0  0
 13 15  2  0  0  0  0
 13 29  1  0  0  0  0
 14 16  2  0  0  0  0
 14 30  1  0  0  0  0
 15 44  1  0  0  0  0
 16 45  1  0  0  0  0
 17 41  3  0  0  0  0
 18 42  3  0  0  0  0
 19 21  1  0  0  0  0
 19 62  1  0  0  0  0
 19 63  1  0  0  0  0
 20 22  1  0  0  0  0
 20 64  1  0  0  0  0
 20 65  1  0  0  0  0
 21 66  1  0  0  0  0
 21 67  1  0  0  0  0
 22 68  1  0  0  0  0
 22 69  1  0  0  0  0
 23 28  1  0  0  0  0
 24 33  2  0  0  0  0
 25 34  2  0  0  0  0
 26 29  1  0  0  0  0
 27 30  1  0  0  0  0
 28 35  2  0  0  0  0
 28 36  1  0  0  0  0
 29 31  2  0  0  0  0
 30 32  2  0  0  0  0
 31 33  1  0  0  0  0
 31 37  1  0  0  0  0
 32 34  1  0  0  0  0
 32 38  1  0  0  0  0
 33 41  1  0  0  0  0
 34 42  1  0  0  0  0
 35 39  1  0  0  0  0
 35 70  1  0  0  0  0
 36 40  2  0  0  0  0
 36 71  1  0  0  0  0
 37 72  1  0  0  0  0
 37 73  1  0  0  0  0
 37 74  1  0  0  0  0
 38 75  1  0  0  0  0
 38 76  1  0  0  0  0
 38 77  1  0  0  0  0
 39 43  2  0  0  0  0
 39 80  1  0  0  0  0
 40 43  1  0  0  0  0
 40 81  1  0  0  0  0
 43 82  1  0  0  0  0
 44 46  1  0  0  0  0
 44 48  2  0  0  0  0
 45 47  1  0  0  0  0
 45 49  2  0  0  0  0
 46 50  2  0  0  0  0
 46 56  1  0  0  0  0
 47 51  2  0  0  0  0
 47 57  1  0  0  0  0
 48 52  1  0  0  0  0
 48 83  1  0  0  0  0
 49 53  1  0  0  0  0
 49 84  1  0  0  0  0
 50 54  1  0  0  0  0
 50 85  1  0  0  0  0
 51 55  1  0  0  0  0
 51 86  1  0  0  0  0
 52 54  2  0  0  0  0
 52 87  1  0  0  0  0
 53 55  2  0  0  0  0
 53 88  1  0  0  0  0
 54 89  1  0  0  0  0
 55 90  1  0  0  0  0
 58 60  1  0  0  0  0
 58 91  1  0  0  0  0
 58 92  1  0  0  0  0
 59 61  1  0  0  0  0
 59 93  1  0  0  0  0
 59 94  1  0  0  0  0
 60 95  1  0  0  0  0
 60 96  1  0  0  0  0
 60 97  1  0  0  0  0
 61 98  1  0  0  0  0
 61 99  1  0  0  0  0
 61100  1  0  0  0  0
M  END
> <PUBCHEM_COMPOUND_CID>
135509887

> <PUBCHEM_COMPOUND_CANONICALIZED>
1

> <PUBCHEM_CACTVS_COMPLEXITY>
1900

> <PUBCHEM_CACTVS_HBOND_ACCEPTOR>
15

> <PUBCHEM_CACTVS_HBOND_DONOR>
2

> <PUBCHEM_CACTVS_ROTATABLE_BOND>
17

> <PUBCHEM_CACTVS_SUBSKEYS>
AAADcfB//AAAAAAAAAAAAAAAAAAAAAAAAAAwYMECAAAAAAABUAAAHgAICAAADAjhmAYyyIMABgCaBiXSWACiAAAkIgAIiAGIbMgI5jqAtZmWMYhmxgGI6c+YyCCOAAAAAAACAAAAAAAAAAQAAAAAAAAAAA==

> <PUBCHEM_IUPAC_OPENEYE_NAME>
ethyl 2-[[1-[2-[benzoyl-[2-[3-cyano-5-(2-ethoxycarbonylphenyl)azo-2-hydroxy-4-methyl-6-oxo-1-pyridyl]ethyl]amino]ethyl]-5-cyano-6-hydroxy-4-methyl-2-oxo-3-pyridyl]azo]benzoate

> <PUBCHEM_IUPAC_CAS_NAME>
2-[[1-[2-[benzoyl-[2-[3-cyano-5-(2-ethoxycarbonylphenyl)azo-2-hydroxy-4-methyl-6-oxo-1-pyridinyl]ethyl]amino]ethyl]-5-cyano-6-hydroxy-4-methyl-2-oxo-3-pyridinyl]azo]benzoic acid ethyl ester

> <PUBCHEM_IUPAC_NAME_MARKUP>
ethyl 2-[[1-[2-[benzoyl-[2-[3-cyano-5-[(2-ethoxycarbonylphenyl)diazenyl]-2-hydroxy-4-methyl-6-oxopyridin-1-yl]ethyl]amino]ethyl]-5-cyano-6-hydroxy-4-methyl-2-oxopyridin-3-yl]diazenyl]benzoate

> <PUBCHEM_IUPAC_NAME>
ethyl 2-[[1-[2-[benzoyl-[2-[3-cyano-5-[(2-ethoxycarbonylphenyl)diazenyl]-2-hydroxy-4-methyl-6-oxopyridin-1-yl]ethyl]amino]ethyl]-5-cyano-6-hydroxy-4-methyl-2-oxopyridin-3-yl]diazenyl]benzoate

> <PUBCHEM_IUPAC_SYSTEMATIC_NAME>
ethyl 2-[[5-cyano-1-[2-[2-[3-cyano-5-[(2-ethoxycarbonylphenyl)diazenyl]-4-methyl-2-oxidanyl-6-oxidanylidene-pyridin-1-yl]ethyl-(phenylcarbonyl)amino]ethyl]-4-methyl-6-oxidanyl-2-oxidanylidene-pyridin-3-yl]diazenyl]benzoate

> <PUBCHEM_IUPAC_TRADITIONAL_NAME>
2-[[1-[2-[benzoyl-[2-[5-(2-carbethoxyphenyl)azo-3-cyano-2-hydroxy-6-keto-4-methyl-1-pyridyl]ethyl]amino]ethyl]-5-cyano-6-hydroxy-2-keto-4-methyl-3-pyridyl]azo]benzoic acid ethyl ester

> <PUBCHEM_IUPAC_INCHI>
InChI=1S/C43H39N9O9/c1-5-60-42(58)29-16-10-12-18-33(29)46-48-35-26(3)31(24-44)38(54)51(40(35)56)22-20-50(37(53)28-14-8-7-9-15-28)21-23-52-39(55)32(25-45)27(4)36(41(52)57)49-47-34-19-13-11-17-30(34)43(59)61-6-2/h7-19,54-55H,5-6,20-23H2,1-4H3

> <PUBCHEM_IUPAC_INCHIKEY>
IRINQDULKPPFCW-UHFFFAOYSA-N

> <PUBCHEM_XLOGP3_AA>
5.6

> <PUBCHEM_EXACT_MASS>
825.28707386

> <PUBCHEM_MOLECULAR_FORMULA>
C43H39N9O9

> <PUBCHEM_MOLECULAR_WEIGHT>
825.8

> <PUBCHEM_SMILES>
CCOC(=O)C1=CC=CC=C1N=NC2=C(C(=C(N(C2=O)CCN(CCN3C(=C(C(=C(C3=O)N=NC4=CC=CC=C4C(=O)OCC)C)C#N)O)C(=O)C5=CC=CC=C5)O)C#N)C

> <PUBCHEM_OPENEYE_CAN_SMILES>
CCOC(=O)C1=CC=CC=C1N=NC2=C(C(=C(N(C2=O)CCN(CCN3C(=C(C(=C(C3=O)N=NC4=CC=CC=C4C(=O)OCC)C)C#N)O)C(=O)C5=CC=CC=C5)O)C#N)C

> <PUBCHEM_OPENEYE_ISO_SMILES>
CCOC(=O)C1=CC=CC=C1N=NC2=C(C(=C(N(C2=O)CCN(CCN3C(=C(C(=C(C3=O)N=NC4=CC=CC=C4C(=O)OCC)C)C#N)O)C(=O)C5=CC=CC=C5)O)C#N)C

> <PUBCHEM_CACTVS_TPSA>
251

> <PUBCHEM_MONOISOTOPIC_WEIGHT>
825.28707386

> <PUBCHEM_TOTAL_CHARGE>
0

> <PUBCHEM_HEAVY_ATOM_COUNT>
61

> <PUBCHEM_ATOM_DEF_STEREO_COUNT>
0

> <PUBCHEM_ATOM_UDEF_STEREO_COUNT>
0

> <PUBCHEM_BOND_DEF_STEREO_COUNT>
0

> <PUBCHEM_BOND_UDEF_STEREO_COUNT>
0

> <PUBCHEM_ISOTOPIC_ATOM_COUNT>
0

> <PUBCHEM_COMPONENT_COUNT>
1

> <PUBCHEM_CACTVS_TAUTO_COUNT>
-1

> <PUBCHEM_COORDINATE_TYPE>
1
5
255

> <PUBCHEM_BONDANNOTATIONS>
11  24  8
11  26  8
12  25  8
12  27  8
24  33  8
25  34  8
26  29  8
27  30  8
28  35  8
28  36  8
29  31  8
30  32  8
31  33  8
32  34  8
35  39  8
36  40  8
39  43  8
40  43  8
44  46  8
44  48  8
45  47  8
45  49  8
46  50  8
47  51  8
48  52  8
49  53  8
50  54  8
51  55  8
52  54  8
53  55  8

$$$$
