135566141
  -OEChem-04042505462D

169181  0     1  0  0  0  0  0999 V2000
    9.8781    0.8083    0.0000 P   0  0  3  0  0  0  0  0  0  0  0  0
   10.7738   -2.4277    0.0000 P   0  0  3  0  0  0  0  0  0  0  0  0
   13.8941   -3.6675    0.0000 P   0  0  3  0  0  0  0  0  0  0  0  0
    6.7577    2.0481    0.0000 P   0  0  3  0  0  0  0  0  0  0  0  0
   16.4658   -7.7450    0.0000 P   0  0  0  0  0  0  0  0  0  0  0  0
    7.3435   -0.9562    0.0000 O   0  0  0  0  0  0  0  0  0  0  0  0
   11.3595   -5.4320    0.0000 O   0  0  0  0  0  0  0  0  0  0  0  0
   12.8016   -0.0984    0.0000 O   0  0  0  0  0  0  0  0  0  0  0  0
   17.0573   -4.7139    0.0000 O   0  0  0  0  0  0  0  0  0  0  0  0
   10.1033   -3.1697    0.0000 O   0  0  0  0  0  0  0  0  0  0  0  0
    6.0873    1.3061    0.0000 O   0  0  0  0  0  0  0  0  0  0  0  0
   10.6882    1.3947    0.0000 O   0  0  0  0  0  0  0  0  0  0  0  0
   14.4805   -4.4776    0.0000 O   0  0  0  0  0  0  0  0  0  0  0  0
    9.0681    0.2219    0.0000 O   0  0  0  0  0  0  0  0  0  0  0  0
    8.7855    4.3774    0.0000 O   0  0  0  0  0  0  0  0  0  0  0  0
   11.4442   -1.6857    0.0000 O   0  0  0  0  0  0  0  0  0  0  0  0
   13.0841   -4.2539    0.0000 O   0  0  0  0  0  0  0  0  0  0  0  0
    7.4282    2.7900    0.0000 O   0  0  0  0  0  0  0  0  0  0  0  0
    6.6721    5.8704    0.0000 O   0  0  0  0  0  0  0  0  0  0  0  0
   16.6754   -6.7672    0.0000 O   0  0  0  0  0  0  0  0  0  0  0  0
   10.4645   -0.0018    0.0000 O   0  0  0  0  0  0  0  0  0  0  0  0
   11.5157   -3.0981    0.0000 O   0  0  0  0  0  0  0  0  0  0  0  0
   14.7042   -3.0811    0.0000 O   0  0  0  0  0  0  0  0  0  0  0  0
    6.0158    2.7185    0.0000 O   0  0  0  0  0  0  0  0  0  0  0  0
    9.2917    1.6183    0.0000 O   0  0  0  0  0  0  0  0  0  0  0  0
   10.0318   -1.7573    0.0000 O   0  0  0  0  0  0  0  0  0  0  0  0
   13.3077   -2.8575    0.0000 O   0  0  0  0  0  0  0  0  0  0  0  0
    7.4997    1.3776    0.0000 O   0  0  0  0  0  0  0  0  0  0  0  0
    8.4509   -6.1518    0.0000 O   0  0  0  0  0  0  0  0  0  0  0  0
   14.5456   -0.6742    0.0000 O   0  0  0  0  0  0  0  0  0  0  0  0
    9.1653   -9.5414    0.0000 O   0  0  0  0  0  0  0  0  0  0  0  0
   16.2562   -8.7228    0.0000 O   0  0  0  0  0  0  0  0  0  0  0  0
   17.4436   -7.9546    0.0000 O   0  0  0  0  0  0  0  0  0  0  0  0
    4.2690   -5.0188    0.0000 O   0  0  0  0  0  0  0  0  0  0  0  0
   15.4881   -7.5354    0.0000 O   0  0  0  0  0  0  0  0  0  0  0  0
   20.6706   -1.5285    0.0000 O   0  0  0  0  0  0  0  0  0  0  0  0
   13.1564    6.9952    0.0000 O   0  0  0  0  0  0  0  0  0  0  0  0
    6.0812   -2.2141    0.0000 N   0  0  0  0  0  0  0  0  0  0  0  0
   10.0972   -6.6898    0.0000 N   0  0  0  0  0  0  0  0  0  0  0  0
   17.6988   -3.0513    0.0000 N   0  0  0  0  0  0  0  0  0  0  0  0
   14.1884    1.0206    0.0000 N   0  0  0  0  0  0  0  0  0  0  0  0
   10.1724    5.4964    0.0000 N   0  0  0  0  0  0  0  0  0  0  0  0
    6.0812   -3.8235    0.0000 N   0  0  0  0  0  0  0  0  0  0  0  0
    8.8081   -7.8466    0.0000 N   0  0  0  0  0  0  0  0  0  0  0  0
    4.2690   -2.0188    0.0000 N   0  0  0  0  0  0  0  0  0  0  0  0
   18.5035   -1.6575    0.0000 N   0  0  0  0  0  0  0  0  0  0  0  0
   19.1706   -4.1266    0.0000 N   0  0  0  0  0  0  0  0  0  0  0  0
   15.8347    0.4826    0.0000 N   0  0  0  0  0  0  0  0  0  0  0  0
   11.7724    5.3227    0.0000 N   0  0  0  0  0  0  0  0  0  0  0  0
    3.4030   -3.5188    0.0000 N   0  0  0  0  0  0  0  0  0  0  0  0
   10.1739    7.3192    0.0000 N   0  0  0  0  0  0  0  0  0  0  0  0
   20.6706   -3.2605    0.0000 N   0  0  0  0  0  0  0  0  0  0  0  0
   11.7586    8.0182    0.0000 N   0  0  0  0  0  0  0  0  0  0  0  0
    2.5369   -2.0188    0.0000 N   0  0  0  0  0  0  0  0  0  0  0  0
   17.1239    1.6393    0.0000 N   0  0  0  0  0  0  0  0  0  0  0  0
   20.6706   -4.9926    0.0000 N   0  0  0  0  0  0  0  0  0  0  0  0
   10.3609    9.0411    0.0000 N   0  0  0  0  0  0  0  0  0  0  0  0
    6.3947    0.3545    0.0000 C   0  0  2  0  0  0  0  0  0  0  0  0
    7.3452    0.0438    0.0000 C   0  0  1  0  0  0  0  0  0  0  0  0
   10.4107   -4.1213    0.0000 C   0  0  2  0  0  0  0  0  0  0  0  0
   11.3612   -4.4320    0.0000 C   0  0  1  0  0  0  0  0  0  0  0  0
    5.8055   -0.4535    0.0000 C   0  0  0  0  0  0  0  0  0  0  0  0
   11.6010    0.9863    0.0000 C   0  0  2  0  0  0  0  0  0  0  0  0
    6.3919   -1.2636    0.0000 C   0  0  1  0  0  0  0  0  0  0  0  0
   11.8072    0.0078    0.0000 C   0  0  1  0  0  0  0  0  0  0  0  0
    9.8215   -4.9293    0.0000 C   0  0  0  0  0  0  0  0  0  0  0  0
   10.4079   -5.7393    0.0000 C   0  0  1  0  0  0  0  0  0  0  0  0
   12.4679    1.4848    0.0000 C   0  0  0  0  0  0  0  0  0  0  0  0
   15.4752   -4.3747    0.0000 C   0  0  2  0  0  0  0  0  0  0  0  0
   13.2099    0.8144    0.0000 C   0  0  1  0  0  0  0  0  0  0  0  0
   16.1431   -5.1190    0.0000 C   0  0  1  0  0  0  0  0  0  0  0  0
   15.9767   -3.5096    0.0000 C   0  0  0  0  0  0  0  0  0  0  0  0
   16.9545   -3.7192    0.0000 C   0  0  1  0  0  0  0  0  0  0  0  0
    8.1552    0.6302    0.0000 C   0  0  0  0  0  0  0  0  0  0  0  0
   12.1713   -3.8456    0.0000 C   0  0  0  0  0  0  0  0  0  0  0  0
   11.1368   -0.7342    0.0000 C   0  0  0  0  0  0  0  0  0  0  0  0
    7.7912    4.4836    0.0000 C   0  0  1  0  0  0  0  0  0  0  0  0
    7.5850    5.4621    0.0000 C   0  0  2  0  0  0  0  0  0  0  0  0
    8.4519    5.9606    0.0000 C   0  0  0  0  0  0  0  0  0  0  0  0
    9.1939    5.2902    0.0000 C   0  0  1  0  0  0  0  0  0  0  0  0
   15.9335   -6.0968    0.0000 C   0  0  0  0  0  0  0  0  0  0  0  0
    7.1208    3.7416    0.0000 C   0  0  0  0  0  0  0  0  0  0  0  0
    5.1350   -2.5188    0.0000 C   0  0  0  0  0  0  0  0  0  0  0  0
    6.6648   -3.0188    0.0000 C   0  0  0  0  0  0  0  0  0  0  0  0
   10.7651   -7.4342    0.0000 C   0  0  0  0  0  0  0  0  0  0  0  0
   18.6706   -3.2605    0.0000 C   0  0  0  0  0  0  0  0  0  0  0  0
    9.1187   -6.8961    0.0000 C   0  0  0  0  0  0  0  0  0  0  0  0
   17.5958   -2.0626    0.0000 C   0  0  0  0  0  0  0  0  0  0  0  0
    5.1350   -3.5188    0.0000 C   0  0  0  0  0  0  0  0  0  0  0  0
   14.4990    1.9712    0.0000 C   0  0  0  0  0  0  0  0  0  0  0  0
   14.8562    0.2763    0.0000 C   0  0  0  0  0  0  0  0  0  0  0  0
   19.1706   -2.3945    0.0000 C   0  0  0  0  0  0  0  0  0  0  0  0
   10.5775    6.4042    0.0000 C   0  0  0  0  0  0  0  0  0  0  0  0
   10.4544   -8.3847    0.0000 C   0  0  0  0  0  0  0  0  0  0  0  0
   10.9094    4.8294    0.0000 C   0  0  0  0  0  0  0  0  0  0  0  0
    9.4759   -8.5909    0.0000 C   0  0  0  0  0  0  0  0  0  0  0  0
   15.4775    2.1774    0.0000 C   0  0  0  0  0  0  0  0  0  0  0  0
   11.5716    6.2962    0.0000 C   0  0  0  0  0  0  0  0  0  0  0  0
    4.2690   -4.0188    0.0000 C   0  0  0  0  0  0  0  0  0  0  0  0
   20.1706   -2.3945    0.0000 C   0  0  0  0  0  0  0  0  0  0  0  0
    3.4030   -2.5188    0.0000 C   0  0  0  0  0  0  0  0  0  0  0  0
   16.1454    1.4331    0.0000 C   0  0  0  0  0  0  0  0  0  0  0  0
   11.1223   -9.1290    0.0000 C   0  0  0  0  0  0  0  0  0  0  0  0
   20.1706   -4.1266    0.0000 C   0  0  0  0  0  0  0  0  0  0  0  0
   12.1622    7.1032    0.0000 C   0  0  0  0  0  0  0  0  0  0  0  0
   10.7645    8.1261    0.0000 C   0  0  0  0  0  0  0  0  0  0  0  0
    5.7825    0.4525    0.0000 H   0  0  0  0  0  0  0  0  0  0  0  0
    7.8972   -0.2386    0.0000 H   0  0  0  0  0  0  0  0  0  0  0  0
   10.8499   -3.6837    0.0000 H   0  0  0  0  0  0  0  0  0  0  0  0
   11.9132   -4.7144    0.0000 H   0  0  0  0  0  0  0  0  0  0  0  0
    5.3455   -0.0379    0.0000 H   0  0  0  0  0  0  0  0  0  0  0  0
    5.3440   -0.8676    0.0000 H   0  0  0  0  0  0  0  0  0  0  0  0
   11.5696    1.6056    0.0000 H   0  0  0  0  0  0  0  0  0  0  0  0
    5.7794   -1.3595    0.0000 H   0  0  0  0  0  0  0  0  0  0  0  0
   12.0284   -0.5714    0.0000 H   0  0  0  0  0  0  0  0  0  0  0  0
    9.3615   -4.5136    0.0000 H   0  0  0  0  0  0  0  0  0  0  0  0
    9.3601   -5.3434    0.0000 H   0  0  0  0  0  0  0  0  0  0  0  0
   10.8456   -6.1785    0.0000 H   0  0  0  0  0  0  0  0  0  0  0  0
   12.9293    1.8989    0.0000 H   0  0  0  0  0  0  0  0  0  0  0  0
   12.1043    1.9871    0.0000 H   0  0  0  0  0  0  0  0  0  0  0  0
   15.1384   -3.8542    0.0000 H   0  0  0  0  0  0  0  0  0  0  0  0
   13.5992    0.3319    0.0000 H   0  0  0  0  0  0  0  0  0  0  0  0
   16.6242   -5.5100    0.0000 H   0  0  0  0  0  0  0  0  0  0  0  0
   16.1693   -2.9203    0.0000 H   0  0  0  0  0  0  0  0  0  0  0  0
   15.4108   -3.2564    0.0000 H   0  0  0  0  0  0  0  0  0  0  0  0
   17.5329   -3.9424    0.0000 H   0  0  0  0  0  0  0  0  0  0  0  0
    8.5028    1.1436    0.0000 H   0  0  0  0  0  0  0  0  0  0  0  0
    7.7100    1.0617    0.0000 H   0  0  0  0  0  0  0  0  0  0  0  0
   12.5188   -3.3322    0.0000 H   0  0  0  0  0  0  0  0  0  0  0  0
   11.7260   -3.4141    0.0000 H   0  0  0  0  0  0  0  0  0  0  0  0
   10.7559   -0.2449    0.0000 H   0  0  0  0  0  0  0  0  0  0  0  0
   10.5889   -1.0243    0.0000 H   0  0  0  0  0  0  0  0  0  0  0  0
    8.0124    3.9044    0.0000 H   0  0  0  0  0  0  0  0  0  0  0  0
    7.5536    6.0813    0.0000 H   0  0  0  0  0  0  0  0  0  0  0  0
    8.9133    6.3747    0.0000 H   0  0  0  0  0  0  0  0  0  0  0  0
    8.0883    6.4629    0.0000 H   0  0  0  0  0  0  0  0  0  0  0  0
    9.3554    5.8888    0.0000 H   0  0  0  0  0  0  0  0  0  0  0  0
   15.3590   -5.8636    0.0000 H   0  0  0  0  0  0  0  0  0  0  0  0
   15.6040   -6.6220    0.0000 H   0  0  0  0  0  0  0  0  0  0  0  0
    6.7399    4.2309    0.0000 H   0  0  0  0  0  0  0  0  0  0  0  0
    6.5728    3.4515    0.0000 H   0  0  0  0  0  0  0  0  0  0  0  0
    7.2848   -3.0188    0.0000 H   0  0  0  0  0  0  0  0  0  0  0  0
   11.3718   -7.3063    0.0000 H   0  0  0  0  0  0  0  0  0  0  0  0
   17.0588   -1.7526    0.0000 H   0  0  0  0  0  0  0  0  0  0  0  0
   14.0850    2.4326    0.0000 H   0  0  0  0  0  0  0  0  0  0  0  0
    6.6084    6.4872    0.0000 H   0  0  0  0  0  0  0  0  0  0  0  0
   10.8424    4.2130    0.0000 H   0  0  0  0  0  0  0  0  0  0  0  0
    8.2014   -7.9744    0.0000 H   0  0  0  0  0  0  0  0  0  0  0  0
   10.2113   -0.5677    0.0000 H   0  0  0  0  0  0  0  0  0  0  0  0
   12.1057   -2.9076    0.0000 H   0  0  0  0  0  0  0  0  0  0  0  0
   14.6404   -2.4644    0.0000 H   0  0  0  0  0  0  0  0  0  0  0  0
    5.4258    2.5279    0.0000 H   0  0  0  0  0  0  0  0  0  0  0  0
   15.6702    2.7667    0.0000 H   0  0  0  0  0  0  0  0  0  0  0  0
   10.6608   -9.5430    0.0000 H   0  0  0  0  0  0  0  0  0  0  0  0
   11.5363   -9.5904    0.0000 H   0  0  0  0  0  0  0  0  0  0  0  0
   11.5837   -8.7149    0.0000 H   0  0  0  0  0  0  0  0  0  0  0  0
    2.8660   -3.8288    0.0000 H   0  0  0  0  0  0  0  0  0  0  0  0
   21.2906   -3.2605    0.0000 H   0  0  0  0  0  0  0  0  0  0  0  0
   12.1248    8.5185    0.0000 H   0  0  0  0  0  0  0  0  0  0  0  0
    2.0000   -2.3288    0.0000 H   0  0  0  0  0  0  0  0  0  0  0  0
    2.5369   -1.3988    0.0000 H   0  0  0  0  0  0  0  0  0  0  0  0
   17.5380    1.1778    0.0000 H   0  0  0  0  0  0  0  0  0  0  0  0
   17.3165    2.2286    0.0000 H   0  0  0  0  0  0  0  0  0  0  0  0
   16.7163   -9.1385    0.0000 H   0  0  0  0  0  0  0  0  0  0  0  0
   17.6342   -8.5446    0.0000 H   0  0  0  0  0  0  0  0  0  0  0  0
   21.2906   -4.9926    0.0000 H   0  0  0  0  0  0  0  0  0  0  0  0
   20.3606   -5.5295    0.0000 H   0  0  0  0  0  0  0  0  0  0  0  0
   10.7271    9.5414    0.0000 H   0  0  0  0  0  0  0  0  0  0  0  0
    9.7445    9.1080    0.0000 H   0  0  0  0  0  0  0  0  0  0  0  0
  1 12  1  0  0  0  0
  1 14  1  0  0  0  0
  1 21  1  0  0  0  0
  1 25  2  0  0  0  0
  2 10  1  0  0  0  0
  2 16  1  0  0  0  0
  2 22  1  0  0  0  0
  2 26  2  0  0  0  0
  3 13  1  0  0  0  0
  3 17  1  0  0  0  0
  3 23  1  0  0  0  0
  3 27  2  0  0  0  0
  4 11  1  0  0  0  0
  4 18  1  0  0  0  0
  4 24  1  0  0  0  0
  4 28  2  0  0  0  0
  5 20  1  0  0  0  0
  5 32  1  0  0  0  0
  5 33  1  0  0  0  0
  5 35  2  0  0  0  0
  6 59  1  0  0  0  0
  6 64  1  0  0  0  0
  7 61  1  0  0  0  0
  7 67  1  0  0  0  0
  8 65  1  0  0  0  0
  8 70  1  0  0  0  0
  9 71  1  0  0  0  0
  9 73  1  0  0  0  0
 60 10  1  6  0  0  0
 58 11  1  6  0  0  0
 63 12  1  1  0  0  0
 69 13  1  1  0  0  0
 14 74  1  0  0  0  0
 15 77  1  0  0  0  0
 15 80  1  0  0  0  0
 16 76  1  0  0  0  0
 17 75  1  0  0  0  0
 18 82  1  0  0  0  0
 78 19  1  1  0  0  0
 19146  1  0  0  0  0
 20 81  1  0  0  0  0
 21149  1  0  0  0  0
 22150  1  0  0  0  0
 23151  1  0  0  0  0
 24152  1  0  0  0  0
 29 87  2  0  0  0  0
 30 91  2  0  0  0  0
 31 96  2  0  0  0  0
 32164  1  0  0  0  0
 33165  1  0  0  0  0
 34 99  2  0  0  0  0
 36100  2  0  0  0  0
 37105  2  0  0  0  0
 64 38  1  1  0  0  0
 38 83  1  0  0  0  0
 38 84  1  0  0  0  0
 67 39  1  1  0  0  0
 39 85  1  0  0  0  0
 39 87  1  0  0  0  0
 73 40  1  6  0  0  0
 40 86  1  0  0  0  0
 40 88  1  0  0  0  0
 70 41  1  6  0  0  0
 41 90  1  0  0  0  0
 41 91  1  0  0  0  0
 80 42  1  6  0  0  0
 42 93  1  0  0  0  0
 42 95  1  0  0  0  0
 43 84  2  0  0  0  0
 43 89  1  0  0  0  0
 44 87  1  0  0  0  0
 44 96  1  0  0  0  0
 44148  1  0  0  0  0
 45 83  1  0  0  0  0
 45101  2  0  0  0  0
 46 88  2  0  0  0  0
 46 92  1  0  0  0  0
 47 86  1  0  0  0  0
 47104  2  0  0  0  0
 48 91  1  0  0  0  0
 48102  2  0  0  0  0
 49 95  2  0  0  0  0
 49 98  1  0  0  0  0
 50 99  1  0  0  0  0
 50101  1  0  0  0  0
 50157  1  0  0  0  0
 51 93  1  0  0  0  0
 51106  2  0  0  0  0
 52100  1  0  0  0  0
 52104  1  0  0  0  0
 52158  1  0  0  0  0
 53105  1  0  0  0  0
 53106  1  0  0  0  0
 53159  1  0  0  0  0
 54101  1  0  0  0  0
 54160  1  0  0  0  0
 54161  1  0  0  0  0
 55102  1  0  0  0  0
 55162  1  0  0  0  0
 55163  1  0  0  0  0
 56104  1  0  0  0  0
 56166  1  0  0  0  0
 56167  1  0  0  0  0
 57106  1  0  0  0  0
 57168  1  0  0  0  0
 57169  1  0  0  0  0
 58 59  1  0  0  0  0
 58 62  1  0  0  0  0
 58107  1  0  0  0  0
 59 74  1  1  0  0  0
 59108  1  0  0  0  0
 60 61  1  0  0  0  0
 60 66  1  0  0  0  0
 60109  1  0  0  0  0
 61 75  1  1  0  0  0
 61110  1  0  0  0  0
 62 64  1  0  0  0  0
 62111  1  0  0  0  0
 62112  1  0  0  0  0
 63 65  1  0  0  0  0
 63 68  1  0  0  0  0
 63113  1  0  0  0  0
 64114  1  0  0  0  0
 65 76  1  6  0  0  0
 65115  1  0  0  0  0
 66 67  1  0  0  0  0
 66116  1  0  0  0  0
 66117  1  0  0  0  0
 67118  1  0  0  0  0
 68 70  1  0  0  0  0
 68119  1  0  0  0  0
 68120  1  0  0  0  0
 69 71  1  0  0  0  0
 69 72  1  0  0  0  0
 69121  1  0  0  0  0
 70122  1  0  0  0  0
 71 81  1  6  0  0  0
 71123  1  0  0  0  0
 72 73  1  0  0  0  0
 72124  1  0  0  0  0
 72125  1  0  0  0  0
 73126  1  0  0  0  0
 74127  1  0  0  0  0
 74128  1  0  0  0  0
 75129  1  0  0  0  0
 75130  1  0  0  0  0
 76131  1  0  0  0  0
 76132  1  0  0  0  0
 77 78  1  0  0  0  0
 77 82  1  6  0  0  0
 77133  1  0  0  0  0
 78 79  1  0  0  0  0
 78134  1  0  0  0  0
 79 80  1  0  0  0  0
 79135  1  0  0  0  0
 79136  1  0  0  0  0
 80137  1  0  0  0  0
 81138  1  0  0  0  0
 81139  1  0  0  0  0
 82140  1  0  0  0  0
 82141  1  0  0  0  0
 83 89  2  0  0  0  0
 84142  1  0  0  0  0
 85 94  2  0  0  0  0
 85143  1  0  0  0  0
 86 92  2  0  0  0  0
 88144  1  0  0  0  0
 89 99  1  0  0  0  0
 90 97  2  0  0  0  0
 90145  1  0  0  0  0
 92100  1  0  0  0  0
 93 98  2  0  0  0  0
 94 96  1  0  0  0  0
 94103  1  0  0  0  0
 95147  1  0  0  0  0
 97102  1  0  0  0  0
 97153  1  0  0  0  0
 98105  1  0  0  0  0
103154  1  0  0  0  0
103155  1  0  0  0  0
103156  1  0  0  0  0
M  END
> <PUBCHEM_COMPOUND_CID>
135566141

> <PUBCHEM_COMPOUND_CANONICALIZED>
1

> <PUBCHEM_CACTVS_COMPLEXITY>
3940

> <PUBCHEM_CACTVS_HBOND_ACCEPTOR>
38

> <PUBCHEM_CACTVS_HBOND_DONOR>
15

> <PUBCHEM_CACTVS_ROTATABLE_BOND>
28

> <PUBCHEM_CACTVS_SUBSKEYS>
AAADcfB//gOAAAAAAAAAAAAAAAAAAWLFiRIgQIECAAAAAEAB+AAAHgAQCCAADBzhlgYHsBfMFxCoQyd3dICAgC0XEqAJUAG4VFCBWApAySAeQIgPFyLDAOCwMAIAAAAAAAAAAAAAAAAAAAAAAAAAAAAAAA==

> <PUBCHEM_IUPAC_OPENEYE_NAME>
[(2R,3S,5R)-3-[[(2R,3S,5R)-3-[[(2R,3S,5R)-5-(2-amino-6-oxo-1H-purin-9-yl)-3-[[(2R,3S,5R)-5-(2-amino-6-oxo-1H-purin-9-yl)-3-hydroxy-tetrahydrofuran-2-yl]methoxy-hydroxy-phosphoryl]oxy-tetrahydrofuran-2-yl]methoxy-hydroxy-phosphoryl]oxy-5-(4-amino-2-oxo-pyrimidin-1-yl)tetrahydrofuran-2-yl]methoxy-hydroxy-phosphoryl]oxy-5-(5-methyl-2,4-dioxo-pyrimidin-1-yl)tetrahydrofuran-2-yl]methyl [(2R,3S,5R)-5-(2-amino-6-oxo-1H-purin-9-yl)-2-(phosphonooxymethyl)tetrahydrofuran-3-yl] hydrogen phosphate

> <PUBCHEM_IUPAC_CAS_NAME>
[(2R,3S,5R)-3-[[(2R,3S,5R)-3-[[(2R,3S,5R)-5-(2-amino-6-oxo-1H-purin-9-yl)-3-[[(2R,3S,5R)-5-(2-amino-6-oxo-1H-purin-9-yl)-3-hydroxy-2-oxolanyl]methoxy-hydroxyphosphoryl]oxy-2-oxolanyl]methoxy-hydroxyphosphoryl]oxy-5-(4-amino-2-oxo-1-pyrimidinyl)-2-oxolanyl]methoxy-hydroxyphosphoryl]oxy-5-(5-methyl-2,4-dioxo-1-pyrimidinyl)-2-oxolanyl]methyl [(2R,3S,5R)-5-(2-amino-6-oxo-1H-purin-9-yl)-2-(phosphonooxymethyl)-3-oxolanyl] hydrogen phosphate

> <PUBCHEM_IUPAC_NAME_MARKUP>
[(2<I>R</I>,3<I>S</I>,5<I>R</I>)-3-[[(2<I>R</I>,3<I>S</I>,5<I>R</I>)-3-[[(2<I>R</I>,3<I>S</I>,5<I>R</I>)-5-(2-amino-6-oxo-1<I>H</I>-purin-9-yl)-3-[[(2<I>R</I>,3<I>S</I>,5<I>R</I>)-5-(2-amino-6-oxo-1<I>H</I>-purin-9-yl)-3-hydroxyoxolan-2-yl]methoxy-hydroxyphosphoryl]oxyoxolan-2-yl]methoxy-hydroxyphosphoryl]oxy-5-(4-amino-2-oxopyrimidin-1-yl)oxolan-2-yl]methoxy-hydroxyphosphoryl]oxy-5-(5-methyl-2,4-dioxopyrimidin-1-yl)oxolan-2-yl]methyl [(2<I>R</I>,3<I>S</I>,5<I>R</I>)-5-(2-amino-6-oxo-1<I>H</I>-purin-9-yl)-2-(phosphonooxymethyl)oxolan-3-yl] hydrogen phosphate

> <PUBCHEM_IUPAC_NAME>
[(2R,3S,5R)-3-[[(2R,3S,5R)-3-[[(2R,3S,5R)-5-(2-amino-6-oxo-1H-purin-9-yl)-3-[[(2R,3S,5R)-5-(2-amino-6-oxo-1H-purin-9-yl)-3-hydroxyoxolan-2-yl]methoxy-hydroxyphosphoryl]oxyoxolan-2-yl]methoxy-hydroxyphosphoryl]oxy-5-(4-amino-2-oxopyrimidin-1-yl)oxolan-2-yl]methoxy-hydroxyphosphoryl]oxy-5-(5-methyl-2,4-dioxopyrimidin-1-yl)oxolan-2-yl]methyl [(2R,3S,5R)-5-(2-amino-6-oxo-1H-purin-9-yl)-2-(phosphonooxymethyl)oxolan-3-yl] hydrogen phosphate

> <PUBCHEM_IUPAC_SYSTEMATIC_NAME>
[(2R,3S,5R)-3-[[(2R,3S,5R)-3-[[(2R,3S,5R)-5-(2-azanyl-6-oxidanylidene-1H-purin-9-yl)-3-[[(2R,3S,5R)-5-(2-azanyl-6-oxidanylidene-1H-purin-9-yl)-3-oxidanyl-oxolan-2-yl]methoxy-oxidanyl-phosphoryl]oxy-oxolan-2-yl]methoxy-oxidanyl-phosphoryl]oxy-5-(4-azanyl-2-oxidanylidene-pyrimidin-1-yl)oxolan-2-yl]methoxy-oxidanyl-phosphoryl]oxy-5-[5-methyl-2,4-bis(oxidanylidene)pyrimidin-1-yl]oxolan-2-yl]methyl [(2R,3S,5R)-5-(2-azanyl-6-oxidanylidene-1H-purin-9-yl)-2-(phosphonooxymethyl)oxolan-3-yl] hydrogen phosphate

> <PUBCHEM_IUPAC_TRADITIONAL_NAME>
[(2R,3S,5R)-3-[[(2R,3S,5R)-3-[[(2R,3S,5R)-5-(2-amino-6-keto-1H-purin-9-yl)-3-[[(2R,3S,5R)-5-(2-amino-6-keto-1H-purin-9-yl)-3-hydroxy-tetrahydrofuran-2-yl]methoxy-hydroxy-phosphoryl]oxy-tetrahydrofuran-2-yl]methoxy-hydroxy-phosphoryl]oxy-5-(4-amino-2-keto-pyrimidin-1-yl)tetrahydrofuran-2-yl]methoxy-hydroxy-phosphoryl]oxy-5-(2,4-diketo-5-methyl-pyrimidin-1-yl)tetrahydrofuran-2-yl]methyl [(2R,3S,5R)-5-(2-amino-6-keto-1H-purin-9-yl)-2-(phosphonooxymethyl)tetrahydrofuran-3-yl] hydrogen phosphate

> <PUBCHEM_IUPAC_INCHI>
InChI=1S/C49H63N20O32P5/c1-18-9-66(49(76)64-41(18)71)32-6-21(27(95-32)13-91-106(86,87)100-22-7-33(96-25(22)11-88-102(77,78)79)68-16-55-36-39(68)59-46(52)62-43(36)73)99-105(84,85)90-12-26-20(5-31(94-26)65-3-2-29(50)57-48(65)75)98-104(82,83)92-14-28-23(8-34(97-28)69-17-56-37-40(69)60-47(53)63-44(37)74)101-103(80,81)89-10-24-19(70)4-30(93-24)67-15-54-35-38(67)58-45(51)61-42(35)72/h2-3,9,15-17,19-28,30-34,70H,4-8,10-14H2,1H3,(H,80,81)(H,82,83)(H,84,85)(H,86,87)(H2,50,57,75)(H,64,71,76)(H2,77,78,79)(H3,51,58,61,72)(H3,52,59,62,73)(H3,53,60,63,74)/t19-,20-,21-,22-,23-,24+,25+,26+,27+,28+,30+,31+,32+,33+,34+/m0/s1

> <PUBCHEM_IUPAC_INCHIKEY>
PIOSCCNVYGDWCA-BFVNWSFKSA-N

> <PUBCHEM_XLOGP3_AA>
-12.1

> <PUBCHEM_EXACT_MASS>
1598.2605349

> <PUBCHEM_MOLECULAR_FORMULA>
C49H63N20O32P5

> <PUBCHEM_MOLECULAR_WEIGHT>
1599.0

> <PUBCHEM_SMILES>
CC1=CN(C(=O)NC1=O)[C@H]2C[C@@H]([C@H](O2)COP(=O)(O)O[C@H]3C[C@@H](O[C@@H]3COP(=O)(O)O)N4C=NC5=C4N=C(NC5=O)N)OP(=O)(O)OC[C@@H]6[C@H](C[C@@H](O6)N7C=CC(=NC7=O)N)OP(=O)(O)OC[C@@H]8[C@H](C[C@@H](O8)N9C=NC1=C9N=C(NC1=O)N)OP(=O)(O)OC[C@@H]1[C@H](C[C@@H](O1)N1C=NC2=C1N=C(NC2=O)N)O

> <PUBCHEM_OPENEYE_CAN_SMILES>
CC1=CN(C(=O)NC1=O)C2CC(C(O2)COP(=O)(O)OC3CC(OC3COP(=O)(O)O)N4C=NC5=C4N=C(NC5=O)N)OP(=O)(O)OCC6C(CC(O6)N7C=CC(=NC7=O)N)OP(=O)(O)OCC8C(CC(O8)N9C=NC1=C9N=C(NC1=O)N)OP(=O)(O)OCC1C(CC(O1)N1C=NC2=C1N=C(NC2=O)N)O

> <PUBCHEM_OPENEYE_ISO_SMILES>
CC1=CN(C(=O)NC1=O)[C@H]2C[C@@H]([C@H](O2)COP(=O)(O)O[C@H]3C[C@@H](O[C@@H]3COP(=O)(O)O)N4C=NC5=C4N=C(NC5=O)N)OP(=O)(O)OC[C@@H]6[C@H](C[C@@H](O6)N7C=CC(=NC7=O)N)OP(=O)(O)OC[C@@H]8[C@H](C[C@@H](O8)N9C=NC1=C9N=C(NC1=O)N)OP(=O)(O)OC[C@@H]1[C@H](C[C@@H](O1)N1C=NC2=C1N=C(NC2=O)N)O

> <PUBCHEM_CACTVS_TPSA>
720

> <PUBCHEM_MONOISOTOPIC_WEIGHT>
1598.2605349

> <PUBCHEM_TOTAL_CHARGE>
0

> <PUBCHEM_HEAVY_ATOM_COUNT>
106

> <PUBCHEM_ATOM_DEF_STEREO_COUNT>
15

> <PUBCHEM_ATOM_UDEF_STEREO_COUNT>
0

> <PUBCHEM_BOND_DEF_STEREO_COUNT>
0

> <PUBCHEM_BOND_UDEF_STEREO_COUNT>
0

> <PUBCHEM_ISOTOPIC_ATOM_COUNT>
0

> <PUBCHEM_COMPONENT_COUNT>
1

> <PUBCHEM_CACTVS_TAUTO_COUNT>
-1

> <PUBCHEM_COORDINATE_TYPE>
1
5
255

> <PUBCHEM_BONDANNOTATIONS>
60  10  6
58  11  6
63  12  5
69  13  5
78  19  5
64  38  5
38  83  8
38  84  8
67  39  5
39  85  8
39  87  8
73  40  6
40  86  8
40  88  8
70  41  6
41  90  8
41  91  8
80  42  6
42  93  8
42  95  8
43  84  8
43  89  8
44  87  8
44  96  8
45  101  8
45  83  8
46  88  8
46  92  8
47  104  8
47  86  8
48  102  8
48  91  8
49  95  8
49  98  8
50  101  8
50  99  8
51  106  8
51  93  8
52  100  8
52  104  8
53  105  8
53  106  8
59  74  5
61  75  5
65  76  6
71  81  6
77  82  6
83  89  8
85  94  8
86  92  8
89  99  8
90  97  8
92  100  8
93  98  8
94  96  8
97  102  8
98  105  8

$$$$
