135565144
  -OEChem-04042512312D

 99103  0     0  0  0  0  0  0999 V2000
   13.5845   -0.3452    0.0000 S   0  0  0  0  0  0  0  0  0  0  0  0
   14.5115    6.0281    0.0000 O   0  0  0  0  0  0  0  0  0  0  0  0
   17.0285    2.5128    0.0000 O   0  0  0  0  0  0  0  0  0  0  0  0
   14.2328    4.2680    0.0000 N   0  0  0  0  0  0  0  0  0  0  0  0
   17.3014    4.2680    0.0000 N   0  0  0  0  0  0  0  0  0  0  0  0
    7.4577   -5.1890    0.0000 C   0  0  0  0  0  0  0  0  0  0  0  0
    7.1487   -6.1400    0.0000 C   0  0  0  0  0  0  0  0  0  0  0  0
    8.4358   -4.9811    0.0000 C   0  0  0  0  0  0  0  0  0  0  0  0
    6.1705   -6.3479    0.0000 C   0  0  0  0  0  0  0  0  0  0  0  0
    8.7448   -4.0300    0.0000 C   0  0  0  0  0  0  0  0  0  0  0  0
    5.8615   -7.2990    0.0000 C   0  0  0  0  0  0  0  0  0  0  0  0
    9.7230   -3.8221    0.0000 C   0  0  0  0  0  0  0  0  0  0  0  0
    4.8834   -7.5069    0.0000 C   0  0  0  0  0  0  0  0  0  0  0  0
   10.0320   -2.8710    0.0000 C   0  0  0  0  0  0  0  0  0  0  0  0
    4.5743   -8.4580    0.0000 C   0  0  0  0  0  0  0  0  0  0  0  0
   11.0102   -2.6631    0.0000 C   0  0  0  0  0  0  0  0  0  0  0  0
    3.5962   -8.6659    0.0000 C   0  0  0  0  0  0  0  0  0  0  0  0
   11.3192   -1.7121    0.0000 C   0  0  0  0  0  0  0  0  0  0  0  0
    3.2872   -9.6169    0.0000 C   0  0  0  0  0  0  0  0  0  0  0  0
   12.2973   -1.5042    0.0000 C   0  0  0  0  0  0  0  0  0  0  0  0
    2.3090   -9.8248    0.0000 C   0  0  0  0  0  0  0  0  0  0  0  0
   12.6063   -0.5531    0.0000 C   0  0  0  0  0  0  0  0  0  0  0  0
    2.0000  -10.7759    0.0000 C   0  0  0  0  0  0  0  0  0  0  0  0
   15.7716    3.7680    0.0000 C   0  0  0  0  0  0  0  0  0  0  0  0
   14.8205    3.4590    0.0000 C   0  0  0  0  0  0  0  0  0  0  0  0
   15.7716    4.7680    0.0000 C   0  0  0  0  0  0  0  0  0  0  0  0
   14.5115    2.5080    0.0000 C   0  0  0  0  0  0  0  0  0  0  0  0
   13.8935    0.6059    0.0000 C   0  0  0  0  0  0  0  0  0  0  0  0
   16.7178    5.0728    0.0000 C   0  0  0  0  0  0  0  0  0  0  0  0
   14.8205    5.0771    0.0000 C   0  0  0  0  0  0  0  0  0  0  0  0
   16.7178    3.4633    0.0000 C   0  0  0  0  0  0  0  0  0  0  0  0
   15.1807    1.7648    0.0000 C   0  0  0  0  0  0  0  0  0  0  0  0
   13.5334    2.3001    0.0000 C   0  0  0  0  0  0  0  0  0  0  0  0
   14.8716    0.8138    0.0000 C   0  0  0  0  0  0  0  0  0  0  0  0
   13.2244    1.3490    0.0000 C   0  0  0  0  0  0  0  0  0  0  0  0
   17.0285    6.0233    0.0000 C   0  0  0  0  0  0  0  0  0  0  0  0
   16.3606    6.7676    0.0000 C   0  0  0  0  0  0  0  0  0  0  0  0
   18.0070    6.2295    0.0000 C   0  0  0  0  0  0  0  0  0  0  0  0
   17.6498    7.9243    0.0000 C   0  0  0  0  0  0  0  0  0  0  0  0
   16.6713    7.7181    0.0000 C   0  0  0  0  0  0  0  0  0  0  0  0
   18.3177    7.1800    0.0000 C   0  0  0  0  0  0  0  0  0  0  0  0
   17.9605    8.8749    0.0000 C   0  0  0  0  0  0  0  0  0  0  0  0
   18.9390    9.0811    0.0000 C   0  0  0  0  0  0  0  0  0  0  0  0
   17.2926    9.6192    0.0000 C   0  0  0  0  0  0  0  0  0  0  0  0
   19.2496   10.0316    0.0000 C   0  0  0  0  0  0  0  0  0  0  0  0
   17.6033   10.5697    0.0000 C   0  0  0  0  0  0  0  0  0  0  0  0
   18.5818   10.7759    0.0000 C   0  0  0  0  0  0  0  0  0  0  0  0
    7.4360   -4.5694    0.0000 H   0  0  0  0  0  0  0  0  0  0  0  0
    6.8437   -5.1027    0.0000 H   0  0  0  0  0  0  0  0  0  0  0  0
    7.1703   -6.7596    0.0000 H   0  0  0  0  0  0  0  0  0  0  0  0
    7.7626   -6.2263    0.0000 H   0  0  0  0  0  0  0  0  0  0  0  0
    8.4575   -5.6007    0.0000 H   0  0  0  0  0  0  0  0  0  0  0  0
    9.0498   -5.0674    0.0000 H   0  0  0  0  0  0  0  0  0  0  0  0
    6.1489   -5.7283    0.0000 H   0  0  0  0  0  0  0  0  0  0  0  0
    5.5565   -6.2617    0.0000 H   0  0  0  0  0  0  0  0  0  0  0  0
    8.7232   -3.4104    0.0000 H   0  0  0  0  0  0  0  0  0  0  0  0
    8.1309   -3.9437    0.0000 H   0  0  0  0  0  0  0  0  0  0  0  0
    5.8831   -7.9186    0.0000 H   0  0  0  0  0  0  0  0  0  0  0  0
    6.4755   -7.3853    0.0000 H   0  0  0  0  0  0  0  0  0  0  0  0
    9.7446   -4.4417    0.0000 H   0  0  0  0  0  0  0  0  0  0  0  0
   10.3370   -3.9084    0.0000 H   0  0  0  0  0  0  0  0  0  0  0  0
    4.8617   -6.8873    0.0000 H   0  0  0  0  0  0  0  0  0  0  0  0
    4.2694   -7.4206    0.0000 H   0  0  0  0  0  0  0  0  0  0  0  0
   10.0104   -2.2514    0.0000 H   0  0  0  0  0  0  0  0  0  0  0  0
    9.4180   -2.7848    0.0000 H   0  0  0  0  0  0  0  0  0  0  0  0
    4.5960   -9.0776    0.0000 H   0  0  0  0  0  0  0  0  0  0  0  0
    5.1883   -8.5443    0.0000 H   0  0  0  0  0  0  0  0  0  0  0  0
   11.0318   -3.2828    0.0000 H   0  0  0  0  0  0  0  0  0  0  0  0
   11.6241   -2.7494    0.0000 H   0  0  0  0  0  0  0  0  0  0  0  0
    3.5745   -8.0463    0.0000 H   0  0  0  0  0  0  0  0  0  0  0  0
    2.9822   -8.5796    0.0000 H   0  0  0  0  0  0  0  0  0  0  0  0
   11.2975   -1.0924    0.0000 H   0  0  0  0  0  0  0  0  0  0  0  0
   10.7052   -1.6258    0.0000 H   0  0  0  0  0  0  0  0  0  0  0  0
    3.3088  -10.2366    0.0000 H   0  0  0  0  0  0  0  0  0  0  0  0
    3.9011   -9.7032    0.0000 H   0  0  0  0  0  0  0  0  0  0  0  0
   12.3190   -2.1238    0.0000 H   0  0  0  0  0  0  0  0  0  0  0  0
   12.9113   -1.5904    0.0000 H   0  0  0  0  0  0  0  0  0  0  0  0
    2.2874   -9.2052    0.0000 H   0  0  0  0  0  0  0  0  0  0  0  0
    1.6950   -9.7386    0.0000 H   0  0  0  0  0  0  0  0  0  0  0  0
   12.5847    0.0665    0.0000 H   0  0  0  0  0  0  0  0  0  0  0  0
   11.9924   -0.4668    0.0000 H   0  0  0  0  0  0  0  0  0  0  0  0
    1.4103  -10.5843    0.0000 H   0  0  0  0  0  0  0  0  0  0  0  0
    1.8084  -11.3656    0.0000 H   0  0  0  0  0  0  0  0  0  0  0  0
    2.5897  -10.9675    0.0000 H   0  0  0  0  0  0  0  0  0  0  0  0
   13.6128    4.2680    0.0000 H   0  0  0  0  0  0  0  0  0  0  0  0
   15.7871    1.8937    0.0000 H   0  0  0  0  0  0  0  0  0  0  0  0
   13.1185    2.7608    0.0000 H   0  0  0  0  0  0  0  0  0  0  0  0
   15.2865    0.3530    0.0000 H   0  0  0  0  0  0  0  0  0  0  0  0
   12.6179    1.2201    0.0000 H   0  0  0  0  0  0  0  0  0  0  0  0
   15.7540    6.6398    0.0000 H   0  0  0  0  0  0  0  0  0  0  0  0
   18.4211    5.7681    0.0000 H   0  0  0  0  0  0  0  0  0  0  0  0
   16.2572    8.1796    0.0000 H   0  0  0  0  0  0  0  0  0  0  0  0
   18.9243    7.3079    0.0000 H   0  0  0  0  0  0  0  0  0  0  0  0
   13.9051    6.1570    0.0000 H   0  0  0  0  0  0  0  0  0  0  0  0
   19.3530    8.6196    0.0000 H   0  0  0  0  0  0  0  0  0  0  0  0
   16.6860    9.4913    0.0000 H   0  0  0  0  0  0  0  0  0  0  0  0
   19.8563   10.1595    0.0000 H   0  0  0  0  0  0  0  0  0  0  0  0
   17.1892   11.0312    0.0000 H   0  0  0  0  0  0  0  0  0  0  0  0
   18.7744   11.3652    0.0000 H   0  0  0  0  0  0  0  0  0  0  0  0
  1 22  1  0  0  0  0
  1 28  1  0  0  0  0
  2 30  1  0  0  0  0
  2 94  1  0  0  0  0
  3 31  2  0  0  0  0
  4 25  1  0  0  0  0
  4 30  1  0  0  0  0
  4 85  1  0  0  0  0
  5 29  2  0  0  0  0
  5 31  1  0  0  0  0
  6  7  1  0  0  0  0
  6  8  1  0  0  0  0
  6 48  1  0  0  0  0
  6 49  1  0  0  0  0
  7  9  1  0  0  0  0
  7 50  1  0  0  0  0
  7 51  1  0  0  0  0
  8 10  1  0  0  0  0
  8 52  1  0  0  0  0
  8 53  1  0  0  0  0
  9 11  1  0  0  0  0
  9 54  1  0  0  0  0
  9 55  1  0  0  0  0
 10 12  1  0  0  0  0
 10 56  1  0  0  0  0
 10 57  1  0  0  0  0
 11 13  1  0  0  0  0
 11 58  1  0  0  0  0
 11 59  1  0  0  0  0
 12 14  1  0  0  0  0
 12 60  1  0  0  0  0
 12 61  1  0  0  0  0
 13 15  1  0  0  0  0
 13 62  1  0  0  0  0
 13 63  1  0  0  0  0
 14 16  1  0  0  0  0
 14 64  1  0  0  0  0
 14 65  1  0  0  0  0
 15 17  1  0  0  0  0
 15 66  1  0  0  0  0
 15 67  1  0  0  0  0
 16 18  1  0  0  0  0
 16 68  1  0  0  0  0
 16 69  1  0  0  0  0
 17 19  1  0  0  0  0
 17 70  1  0  0  0  0
 17 71  1  0  0  0  0
 18 20  1  0  0  0  0
 18 72  1  0  0  0  0
 18 73  1  0  0  0  0
 19 21  1  0  0  0  0
 19 74  1  0  0  0  0
 19 75  1  0  0  0  0
 20 22  1  0  0  0  0
 20 76  1  0  0  0  0
 20 77  1  0  0  0  0
 21 23  1  0  0  0  0
 21 78  1  0  0  0  0
 21 79  1  0  0  0  0
 22 80  1  0  0  0  0
 22 81  1  0  0  0  0
 23 82  1  0  0  0  0
 23 83  1  0  0  0  0
 23 84  1  0  0  0  0
 24 25  2  0  0  0  0
 24 26  1  0  0  0  0
 24 31  1  0  0  0  0
 25 27  1  0  0  0  0
 26 29  1  0  0  0  0
 26 30  2  0  0  0  0
 27 32  2  0  0  0  0
 27 33  1  0  0  0  0
 28 34  2  0  0  0  0
 28 35  1  0  0  0  0
 29 36  1  0  0  0  0
 32 34  1  0  0  0  0
 32 86  1  0  0  0  0
 33 35  2  0  0  0  0
 33 87  1  0  0  0  0
 34 88  1  0  0  0  0
 35 89  1  0  0  0  0
 36 37  2  0  0  0  0
 36 38  1  0  0  0  0
 37 40  1  0  0  0  0
 37 90  1  0  0  0  0
 38 41  2  0  0  0  0
 38 91  1  0  0  0  0
 39 40  2  0  0  0  0
 39 41  1  0  0  0  0
 39 42  1  0  0  0  0
 40 92  1  0  0  0  0
 41 93  1  0  0  0  0
 42 43  2  0  0  0  0
 42 44  1  0  0  0  0
 43 45  1  0  0  0  0
 43 95  1  0  0  0  0
 44 46  2  0  0  0  0
 44 96  1  0  0  0  0
 45 47  2  0  0  0  0
 45 97  1  0  0  0  0
 46 47  1  0  0  0  0
 46 98  1  0  0  0  0
 47 99  1  0  0  0  0
M  END
> <PUBCHEM_COMPOUND_CID>
135565144

> <PUBCHEM_COMPOUND_CANONICALIZED>
1

> <PUBCHEM_CACTVS_COMPLEXITY>
902

> <PUBCHEM_CACTVS_HBOND_ACCEPTOR>
3

> <PUBCHEM_CACTVS_HBOND_DONOR>
2

> <PUBCHEM_CACTVS_ROTATABLE_BOND>
21

> <PUBCHEM_CACTVS_SUBSKEYS>
AAADcfB/MABAAAAAAAAAAAAAAAAAAWIAAAAwYMAAAAAQAAAB1AAAHgQQCAAADAiF3gCyhZLJkgioAyVyVACCgCAlKDAImTkkTN0IJvri1ZOEcYhkwBHo2Ue+yPCO0AAAAAAAAACgAAAAAAAAAAAAAAAAAA==

> <PUBCHEM_IUPAC_OPENEYE_NAME>
3-hydroxy-1-(4-octadecylsulfanylphenyl)-4-(4-phenylphenyl)-2H-pyrrolo[3,4-c]pyrrol-6-one

> <PUBCHEM_IUPAC_CAS_NAME>
3-hydroxy-1-[4-(octadecylthio)phenyl]-4-(4-phenylphenyl)-2H-pyrrolo[3,4-c]pyrrol-6-one

> <PUBCHEM_IUPAC_NAME_MARKUP>
3-hydroxy-1-(4-octadecylsulfanylphenyl)-4-(4-phenylphenyl)-2<I>H</I>-pyrrolo[3,4-c]pyrrol-6-one

> <PUBCHEM_IUPAC_NAME>
3-hydroxy-1-(4-octadecylsulfanylphenyl)-4-(4-phenylphenyl)-2H-pyrrolo[3,4-c]pyrrol-6-one

> <PUBCHEM_IUPAC_SYSTEMATIC_NAME>
1-(4-octadecylsulfanylphenyl)-3-oxidanyl-4-(4-phenylphenyl)-2H-pyrrolo[3,4-c]pyrrol-6-one

> <PUBCHEM_IUPAC_TRADITIONAL_NAME>
3-hydroxy-4-(4-phenylphenyl)-1-[4-(stearylthio)phenyl]-2H-pyrrolo[3,4-c]pyrrol-6-one

> <PUBCHEM_IUPAC_INCHI>
InChI=1S/C42H52N2O2S/c1-2-3-4-5-6-7-8-9-10-11-12-13-14-15-16-20-31-47-36-29-27-35(28-30-36)40-38-37(41(45)44-40)39(43-42(38)46)34-25-23-33(24-26-34)32-21-18-17-19-22-32/h17-19,21-30,44-45H,2-16,20,31H2,1H3

> <PUBCHEM_IUPAC_INCHIKEY>
VSSCQGWQYGFLEY-UHFFFAOYSA-N

> <PUBCHEM_XLOGP3_AA>
14.3

> <PUBCHEM_EXACT_MASS>
648.37495008

> <PUBCHEM_MOLECULAR_FORMULA>
C42H52N2O2S

> <PUBCHEM_MOLECULAR_WEIGHT>
648.9

> <PUBCHEM_SMILES>
CCCCCCCCCCCCCCCCCCSC1=CC=C(C=C1)C2=C3C(=C(N2)O)C(=NC3=O)C4=CC=C(C=C4)C5=CC=CC=C5

> <PUBCHEM_OPENEYE_CAN_SMILES>
CCCCCCCCCCCCCCCCCCSC1=CC=C(C=C1)C2=C3C(=C(N2)O)C(=NC3=O)C4=CC=C(C=C4)C5=CC=CC=C5

> <PUBCHEM_OPENEYE_ISO_SMILES>
CCCCCCCCCCCCCCCCCCSC1=CC=C(C=C1)C2=C3C(=C(N2)O)C(=NC3=O)C4=CC=C(C=C4)C5=CC=CC=C5

> <PUBCHEM_CACTVS_TPSA>
90.8

> <PUBCHEM_MONOISOTOPIC_WEIGHT>
648.37495008

> <PUBCHEM_TOTAL_CHARGE>
0

> <PUBCHEM_HEAVY_ATOM_COUNT>
47

> <PUBCHEM_ATOM_DEF_STEREO_COUNT>
0

> <PUBCHEM_ATOM_UDEF_STEREO_COUNT>
0

> <PUBCHEM_BOND_DEF_STEREO_COUNT>
0

> <PUBCHEM_BOND_UDEF_STEREO_COUNT>
0

> <PUBCHEM_ISOTOPIC_ATOM_COUNT>
0

> <PUBCHEM_COMPONENT_COUNT>
1

> <PUBCHEM_CACTVS_TAUTO_COUNT>
-1

> <PUBCHEM_COORDINATE_TYPE>
1
5
255

> <PUBCHEM_BONDANNOTATIONS>
24  25  8
24  26  8
26  30  8
27  32  8
27  33  8
28  34  8
28  35  8
32  34  8
33  35  8
36  37  8
36  38  8
37  40  8
38  41  8
39  40  8
39  41  8
4  25  8
4  30  8
42  43  8
42  44  8
43  45  8
44  46  8
45  47  8
46  47  8

$$$$
