135565130
  -OEChem-04042512132D

 44 46  0     0  0  0  0  0  0999 V2000
    2.0000   -0.9095    0.0000 Sr  0  2  0  0  0  0  0  0  0  0  0  0
    3.7320   -0.9095    0.0000 S   0  0  0  0  0  0  0  0  0  0  0  0
    9.8602    3.6147    0.0000 S   0  0  0  0  0  0  0  0  0  0  0  0
    4.5981    1.5905    0.0000 O   0  0  0  0  0  0  0  0  0  0  0  0
    2.8660   -0.4095    0.0000 O   0  5  0  0  0  0  0  0  0  0  0  0
    3.2320   -1.7755    0.0000 O   0  0  0  0  0  0  0  0  0  0  0  0
    4.2320   -0.0435    0.0000 O   0  0  0  0  0  0  0  0  0  0  0  0
   10.7243    4.1180    0.0000 O   0  5  0  0  0  0  0  0  0  0  0  0
   10.3636    2.7506    0.0000 O   0  0  0  0  0  0  0  0  0  0  0  0
    9.3569    4.4788    0.0000 O   0  0  0  0  0  0  0  0  0  0  0  0
    5.4641    0.0905    0.0000 N   0  0  0  0  0  0  0  0  0  0  0  0
    6.3301    0.5905    0.0000 N   0  0  0  0  0  0  0  0  0  0  0  0
    4.5981   -2.4095    0.0000 C   0  0  0  0  0  0  0  0  0  0  0  0
    7.1962    2.0905    0.0000 C   0  0  0  0  0  0  0  0  0  0  0  0
    4.5981   -1.4095    0.0000 C   0  0  0  0  0  0  0  0  0  0  0  0
    7.1962    3.0905    0.0000 C   0  0  0  0  0  0  0  0  0  0  0  0
    5.4641   -2.9095    0.0000 C   0  0  0  0  0  0  0  0  0  0  0  0
    5.4641   -0.9095    0.0000 C   0  0  0  0  0  0  0  0  0  0  0  0
    6.3301    1.5905    0.0000 C   0  0  0  0  0  0  0  0  0  0  0  0
    8.0901    3.6252    0.0000 C   0  0  0  0  0  0  0  0  0  0  0  0
    8.9962    3.1113    0.0000 C   0  0  0  0  0  0  0  0  0  0  0  0
    8.0901    1.5558    0.0000 C   0  0  0  0  0  0  0  0  0  0  0  0
    6.3301   -2.4095    0.0000 C   0  0  0  0  0  0  0  0  0  0  0  0
    6.3301   -1.4095    0.0000 C   0  0  0  0  0  0  0  0  0  0  0  0
    6.3301    3.5905    0.0000 C   0  0  0  0  0  0  0  0  0  0  0  0
    3.6881   -2.9163    0.0000 C   0  0  0  0  0  0  0  0  0  0  0  0
    5.4641    2.0905    0.0000 C   0  0  0  0  0  0  0  0  0  0  0  0
    8.9962    2.0697    0.0000 C   0  0  0  0  0  0  0  0  0  0  0  0
    5.4802   -3.9510    0.0000 C   0  0  0  0  0  0  0  0  0  0  0  0
    5.4641    3.0905    0.0000 C   0  0  0  0  0  0  0  0  0  0  0  0
    3.6800   -3.9579    0.0000 C   0  0  0  0  0  0  0  0  0  0  0  0
    4.5821   -4.4788    0.0000 C   0  0  0  0  0  0  0  0  0  0  0  0
    8.0829    4.2451    0.0000 H   0  0  0  0  0  0  0  0  0  0  0  0
    8.0829    0.9359    0.0000 H   0  0  0  0  0  0  0  0  0  0  0  0
    6.8671   -2.7195    0.0000 H   0  0  0  0  0  0  0  0  0  0  0  0
    6.8671   -1.0995    0.0000 H   0  0  0  0  0  0  0  0  0  0  0  0
    6.3301    4.2105    0.0000 H   0  0  0  0  0  0  0  0  0  0  0  0
    3.1548   -2.6002    0.0000 H   0  0  0  0  0  0  0  0  0  0  0  0
    9.5319    1.7576    0.0000 H   0  0  0  0  0  0  0  0  0  0  0  0
    6.0206   -4.2548    0.0000 H   0  0  0  0  0  0  0  0  0  0  0  0
    4.9272    3.4005    0.0000 H   0  0  0  0  0  0  0  0  0  0  0  0
    3.1419   -4.2659    0.0000 H   0  0  0  0  0  0  0  0  0  0  0  0
    4.5845   -5.0988    0.0000 H   0  0  0  0  0  0  0  0  0  0  0  0
    4.0611    1.9005    0.0000 H   0  0  0  0  0  0  0  0  0  0  0  0
  2  5  1  0  0  0  0
  2  6  2  0  0  0  0
  2  7  2  0  0  0  0
  2 15  1  0  0  0  0
  3  8  1  0  0  0  0
  3  9  2  0  0  0  0
  3 10  2  0  0  0  0
  3 21  1  0  0  0  0
  4 27  1  0  0  0  0
  4 44  1  0  0  0  0
 11 12  2  0  0  0  0
 11 18  1  0  0  0  0
 12 19  1  0  0  0  0
 13 15  1  0  0  0  0
 13 17  1  0  0  0  0
 13 26  2  0  0  0  0
 14 16  2  0  0  0  0
 14 19  1  0  0  0  0
 14 22  1  0  0  0  0
 15 18  2  0  0  0  0
 16 20  1  0  0  0  0
 16 25  1  0  0  0  0
 17 23  1  0  0  0  0
 17 29  2  0  0  0  0
 18 24  1  0  0  0  0
 19 27  2  0  0  0  0
 20 21  2  0  0  0  0
 20 33  1  0  0  0  0
 21 28  1  0  0  0  0
 22 28  2  0  0  0  0
 22 34  1  0  0  0  0
 23 24  2  0  0  0  0
 23 35  1  0  0  0  0
 24 36  1  0  0  0  0
 25 30  2  0  0  0  0
 25 37  1  0  0  0  0
 26 31  1  0  0  0  0
 26 38  1  0  0  0  0
 27 30  1  0  0  0  0
 28 39  1  0  0  0  0
 29 32  1  0  0  0  0
 29 40  1  0  0  0  0
 30 41  1  0  0  0  0
 31 32  2  0  0  0  0
 31 42  1  0  0  0  0
 32 43  1  0  0  0  0
M  CHG  3   1   2   5  -1   8  -1
M  END
> <PUBCHEM_COMPOUND_CID>
135565130

> <PUBCHEM_COMPOUND_CANONICALIZED>
1

> <PUBCHEM_CACTVS_COMPLEXITY>
854

> <PUBCHEM_CACTVS_HBOND_ACCEPTOR>
9

> <PUBCHEM_CACTVS_HBOND_DONOR>
1

> <PUBCHEM_CACTVS_ROTATABLE_BOND>
2

> <PUBCHEM_CACTVS_SUBSKEYS>
AAADccB7OABgAAAABAAAAAAAAAAAAAAAAAAwYMGAAAAAAADBVAAAHgQICAAADAyB2AAwx8AAAgKCAiRCQHDCAEAgIgAIiBwHbIgKJiKSkZOAcABkwBEI2AeQwLAOuAABwAAWEQBwAAOAACwiAAAAAAAAAA==

> <PUBCHEM_IUPAC_OPENEYE_NAME>
strontium;6-hydroxy-5-[(1-sulfonato-2-naphthyl)azo]naphthalene-2-sulfonate

> <PUBCHEM_IUPAC_CAS_NAME>
strontium;6-hydroxy-5-[(1-sulfonato-2-naphthalenyl)azo]-2-naphthalenesulfonate

> <PUBCHEM_IUPAC_NAME_MARKUP>
strontium;6-hydroxy-5-[(1-sulfonatonaphthalen-2-yl)diazenyl]naphthalene-2-sulfonate

> <PUBCHEM_IUPAC_NAME>
strontium;6-hydroxy-5-[(1-sulfonatonaphthalen-2-yl)diazenyl]naphthalene-2-sulfonate

> <PUBCHEM_IUPAC_SYSTEMATIC_NAME>
strontium;6-oxidanyl-5-[(1-sulfonatonaphthalen-2-yl)diazenyl]naphthalene-2-sulfonate

> <PUBCHEM_IUPAC_TRADITIONAL_NAME>
strontium;6-hydroxy-5-[(1-sulfonato-2-naphthyl)azo]naphthalene-2-sulfonate

> <PUBCHEM_IUPAC_INCHI>
InChI=1S/C20H14N2O7S2.Sr/c23-18-10-6-13-11-14(30(24,25)26)7-8-15(13)19(18)22-21-17-9-5-12-3-1-2-4-16(12)20(17)31(27,28)29;/h1-11,23H,(H,24,25,26)(H,27,28,29);/q;+2/p-2

> <PUBCHEM_IUPAC_INCHIKEY>
JNGLENGZPHCLIC-UHFFFAOYSA-L

> <PUBCHEM_EXACT_MASS>
543.91420533

> <PUBCHEM_MOLECULAR_FORMULA>
C20H12N2O7S2Sr

> <PUBCHEM_MOLECULAR_WEIGHT>
544.1

> <PUBCHEM_SMILES>
C1=CC=C2C(=C1)C=CC(=C2S(=O)(=O)[O-])N=NC3=C(C=CC4=C3C=CC(=C4)S(=O)(=O)[O-])O.[Sr+2]

> <PUBCHEM_OPENEYE_CAN_SMILES>
C1=CC=C2C(=C1)C=CC(=C2S(=O)(=O)[O-])N=NC3=C(C=CC4=C3C=CC(=C4)S(=O)(=O)[O-])O.[Sr+2]

> <PUBCHEM_OPENEYE_ISO_SMILES>
C1=CC=C2C(=C1)C=CC(=C2S(=O)(=O)[O-])N=NC3=C(C=CC4=C3C=CC(=C4)S(=O)(=O)[O-])O.[Sr+2]

> <PUBCHEM_CACTVS_TPSA>
176

> <PUBCHEM_MONOISOTOPIC_WEIGHT>
543.91420533

> <PUBCHEM_TOTAL_CHARGE>
0

> <PUBCHEM_HEAVY_ATOM_COUNT>
32

> <PUBCHEM_ATOM_DEF_STEREO_COUNT>
0

> <PUBCHEM_ATOM_UDEF_STEREO_COUNT>
0

> <PUBCHEM_BOND_DEF_STEREO_COUNT>
0

> <PUBCHEM_BOND_UDEF_STEREO_COUNT>
0

> <PUBCHEM_ISOTOPIC_ATOM_COUNT>
0

> <PUBCHEM_COMPONENT_COUNT>
2

> <PUBCHEM_CACTVS_TAUTO_COUNT>
-1

> <PUBCHEM_COORDINATE_TYPE>
1
5
255

> <PUBCHEM_BONDANNOTATIONS>
13  15  8
13  17  8
13  26  8
14  16  8
14  19  8
14  22  8
15  18  8
16  20  8
16  25  8
17  23  8
17  29  8
18  24  8
19  27  8
20  21  8
21  28  8
22  28  8
23  24  8
25  30  8
26  31  8
27  30  8
29  32  8
31  32  8

$$$$
