13750142
  -OEChem-04042505362D

 15 14  0     0  0  0  0  0  0999 V2000
    3.2320    0.6160    0.0000 F   0  0  0  0  0  0  0  0  0  0  0  0
    4.2320   -1.1160    0.0000 F   0  0  0  0  0  0  0  0  0  0  0  0
    5.0981   -0.6160    0.0000 F   0  0  0  0  0  0  0  0  0  0  0  0
    4.0981    1.1160    0.0000 F   0  0  0  0  0  0  0  0  0  0  0  0
    2.0000   -0.2500    0.0000 F   0  0  0  0  0  0  0  0  0  0  0  0
    2.8660   -1.7500    0.0000 F   0  0  0  0  0  0  0  0  0  0  0  0
    6.3301    0.2500    0.0000 F   0  0  0  0  0  0  0  0  0  0  0  0
    3.7320   -0.2500    0.0000 C   0  0  0  0  0  0  0  0  0  0  0  0
    4.5981    0.2500    0.0000 C   0  0  0  0  0  0  0  0  0  0  0  0
    2.8660   -0.7500    0.0000 C   0  0  0  0  0  0  0  0  0  0  0  0
    5.4641    0.7500    0.0000 C   0  0  0  0  0  0  0  0  0  0  0  0
    5.4641    1.7500    0.0000 C   0  0  0  0  0  0  0  0  0  0  0  0
    2.8660   -0.1300    0.0000 H   0  0  0  0  0  0  0  0  0  0  0  0
    6.0010    2.0600    0.0000 H   0  0  0  0  0  0  0  0  0  0  0  0
    4.9272    2.0600    0.0000 H   0  0  0  0  0  0  0  0  0  0  0  0
  1  8  1  0  0  0  0
  2  8  1  0  0  0  0
  3  9  1  0  0  0  0
  4  9  1  0  0  0  0
  5 10  1  0  0  0  0
  6 10  1  0  0  0  0
  7 11  1  0  0  0  0
  8  9  1  0  0  0  0
  8 10  1  0  0  0  0
  9 11  1  0  0  0  0
 10 13  1  0  0  0  0
 11 12  2  0  0  0  0
 12 14  1  0  0  0  0
 12 15  1  0  0  0  0
M  END
> <PUBCHEM_COMPOUND_CID>
13750142

> <PUBCHEM_COMPOUND_CANONICALIZED>
1

> <PUBCHEM_CACTVS_COMPLEXITY>
182

> <PUBCHEM_CACTVS_HBOND_ACCEPTOR>
7

> <PUBCHEM_CACTVS_HBOND_DONOR>
0

> <PUBCHEM_CACTVS_ROTATABLE_BOND>
3

> <PUBCHEM_CACTVS_SUBSKEYS>
AAADcQBgAcAAAAAAAAAAAAAAAAAAAAAAAAAAAAAAAAAAAAAAAAAAGQAAAAAACACAABAAAAAAAACAAABCAAAAAAAgAAAAAAAAAAgAAAAAAAAAAAAAgAAAAAAAAAAAAAAAAAAAAAAAAAAAAAAAAAAAAAAAAA==

> <PUBCHEM_IUPAC_OPENEYE_NAME>
2,3,3,4,4,5,5-heptafluoropent-1-ene

> <PUBCHEM_IUPAC_CAS_NAME>
2,3,3,4,4,5,5-heptafluoro-1-pentene

> <PUBCHEM_IUPAC_NAME_MARKUP>
2,3,3,4,4,5,5-heptafluoropent-1-ene

> <PUBCHEM_IUPAC_NAME>
2,3,3,4,4,5,5-heptafluoropent-1-ene

> <PUBCHEM_IUPAC_SYSTEMATIC_NAME>
2,3,3,4,4,5,5-heptakis(fluoranyl)pent-1-ene

> <PUBCHEM_IUPAC_TRADITIONAL_NAME>
2,3,3,4,4,5,5-heptafluoropent-1-ene

> <PUBCHEM_IUPAC_INCHI>
InChI=1S/C5H3F7/c1-2(6)4(9,10)5(11,12)3(7)8/h3H,1H2

> <PUBCHEM_IUPAC_INCHIKEY>
ZHKVUSSHABANQG-UHFFFAOYSA-N

> <PUBCHEM_XLOGP3_AA>
2.9

> <PUBCHEM_EXACT_MASS>
196.01229723

> <PUBCHEM_MOLECULAR_FORMULA>
C5H3F7

> <PUBCHEM_MOLECULAR_WEIGHT>
196.07

> <PUBCHEM_SMILES>
C=C(C(C(C(F)F)(F)F)(F)F)F

> <PUBCHEM_OPENEYE_CAN_SMILES>
C=C(C(C(C(F)F)(F)F)(F)F)F

> <PUBCHEM_OPENEYE_ISO_SMILES>
C=C(C(C(C(F)F)(F)F)(F)F)F

> <PUBCHEM_CACTVS_TPSA>
0

> <PUBCHEM_MONOISOTOPIC_WEIGHT>
196.01229723

> <PUBCHEM_TOTAL_CHARGE>
0

> <PUBCHEM_HEAVY_ATOM_COUNT>
12

> <PUBCHEM_ATOM_DEF_STEREO_COUNT>
0

> <PUBCHEM_ATOM_UDEF_STEREO_COUNT>
0

> <PUBCHEM_BOND_DEF_STEREO_COUNT>
0

> <PUBCHEM_BOND_UDEF_STEREO_COUNT>
0

> <PUBCHEM_ISOTOPIC_ATOM_COUNT>
0

> <PUBCHEM_COMPONENT_COUNT>
1

> <PUBCHEM_CACTVS_TAUTO_COUNT>
-1

> <PUBCHEM_COORDINATE_TYPE>
1
5
255

$$$$
