138756677
  -OEChem-04042512332D

 20  0  0     0  0  0  0  0  0999 V2000
    0.8660    2.5000    0.0000 K   0  3  0  0  0  0  0  0  0  0  0  0
    0.8660    4.2320    0.0000 Si  0  0  0  0  0  0  0  0  0  0  0  0
    0.8660    5.9641    0.0000 Si  0  0  0  0  0  0  0  0  0  0  0  0
    2.5981    5.9641    0.0000 Si  0  0  0  0  0  0  0  0  0  0  0  0
    4.3301    5.9641    0.0000 Al  0  1  0  0  0  0  0  0  0  0  0  0
    6.0622    5.9641    0.0000 Mg  0  2  0  0  0  0  0  0  0  0  0  0
    1.7320    0.5000    0.0000 Mg  0  2  0  0  0  0  0  0  0  0  0  0
    3.4641    0.5000    0.0000 Mg  0  2  0  0  0  0  0  0  0  0  0  0
    1.7320    3.7320    0.0000 F   0  5  0  0  0  0  0  0  0  0  0  0
    0.0000    4.7320    0.0000 F   0  5  0  0  0  0  0  0  0  0  0  0
    4.3301    0.0000    0.0000 O   0  6  0  0  0  0  0  0  0  0  0  0
    5.1962    5.4641    0.0000 O   0  6  0  0  0  0  0  0  0  0  0  0
    4.3301    6.9641    0.0000 O   0  6  0  0  0  0  0  0  0  0  0  0
    3.4641    5.4641    0.0000 O   0  6  0  0  0  0  0  0  0  0  0  0
    1.7320    6.4641    0.0000 O   0  6  0  0  0  0  0  0  0  0  0  0
    0.0000    5.4641    0.0000 O   0  6  0  0  0  0  0  0  0  0  0  0
    0.3660    6.8301    0.0000 O   0  6  0  0  0  0  0  0  0  0  0  0
    1.3660    5.0981    0.0000 O   0  6  0  0  0  0  0  0  0  0  0  0
    0.3660    3.3660    0.0000 O   0  6  0  0  0  0  0  0  0  0  0  0
    2.5981    0.0000    0.0000 O   0  6  0  0  0  0  0  0  0  0  0  0
M  CHG  8   1   1   2   4   3   4   4   4   5   3   6   2   7   2   8   2
M  CHG  8   9  -1  10  -1  11  -2  12  -2  13  -2  14  -2  15  -2  16  -2
M  CHG  4  17  -2  18  -2  19  -2  20  -2
M  END
> <PUBCHEM_COMPOUND_CID>
138756677

> <PUBCHEM_COMPOUND_CANONICALIZED>
1

> <PUBCHEM_CACTVS_COMPLEXITY>
0

> <PUBCHEM_CACTVS_HBOND_ACCEPTOR>
12

> <PUBCHEM_CACTVS_HBOND_DONOR>
0

> <PUBCHEM_CACTVS_ROTATABLE_BOND>
0

> <PUBCHEM_CACTVS_SUBSKEYS>
AAADcQAAPYwAQDAAAAAAAAAAAAAAAAAAAAAAAAAAAAAAAAAAAAAAAAAAAAAAAAAAAAAAAAAAAAAAAAAAAAAAAAAAAAAAAAAAAAAAAAAAAAAAAAAAAAAAAAAAAAAAAAAAAAAAAAAAAAAAAAAAAAAAAAAAAA==

> <PUBCHEM_IUPAC_OPENEYE_NAME>
aluminum;trimagnesium;potassium;oxygen(2-);silicon(4+);difluoride

> <PUBCHEM_IUPAC_CAS_NAME>
aluminum;trimagnesium;potassium;oxygen(2-);silicon(4+);difluoride

> <PUBCHEM_IUPAC_NAME_MARKUP>
aluminum;trimagnesium;potassium;oxygen(2-);silicon(4+);difluoride

> <PUBCHEM_IUPAC_NAME>
aluminum;trimagnesium;potassium;oxygen(2-);silicon(4+);difluoride

> <PUBCHEM_IUPAC_SYSTEMATIC_NAME>
aluminum;trimagnesium;potassium;oxygen(2-);silicon(4+);difluoride

> <PUBCHEM_IUPAC_TRADITIONAL_NAME>
aluminum;trimagnesium;potassium;oxygen(2-);silicon(4+);difluoride

> <PUBCHEM_IUPAC_INCHI>
InChI=1S/Al.2FH.K.3Mg.10O.3Si/h;2*1H;;;;;;;;;;;;;;;;;/q+3;;;+1;3*+2;10*-2;3*+4/p-2

> <PUBCHEM_IUPAC_INCHIKEY>
RJDOZRNNYVAULJ-UHFFFAOYSA-L

> <PUBCHEM_EXACT_MASS>
419.7771021

> <PUBCHEM_MOLECULAR_FORMULA>
AlF2KMg3O10Si3

> <PUBCHEM_MOLECULAR_WEIGHT>
421.24

> <PUBCHEM_SMILES>
[O-2].[O-2].[O-2].[O-2].[O-2].[O-2].[O-2].[O-2].[O-2].[O-2].[F-].[F-].[Mg+2].[Mg+2].[Mg+2].[Al+3].[Si+4].[Si+4].[Si+4].[K+]

> <PUBCHEM_OPENEYE_CAN_SMILES>
[O-2].[O-2].[O-2].[O-2].[O-2].[O-2].[O-2].[O-2].[O-2].[O-2].[F-].[F-].[Mg+2].[Mg+2].[Mg+2].[Al+3].[Si+4].[Si+4].[Si+4].[K+]

> <PUBCHEM_OPENEYE_ISO_SMILES>
[O-2].[O-2].[O-2].[O-2].[O-2].[O-2].[O-2].[O-2].[O-2].[O-2].[F-].[F-].[Mg+2].[Mg+2].[Mg+2].[Al+3].[Si+4].[Si+4].[Si+4].[K+]

> <PUBCHEM_CACTVS_TPSA>
10

> <PUBCHEM_MONOISOTOPIC_WEIGHT>
419.7771021

> <PUBCHEM_TOTAL_CHARGE>
0

> <PUBCHEM_HEAVY_ATOM_COUNT>
20

> <PUBCHEM_ATOM_DEF_STEREO_COUNT>
0

> <PUBCHEM_ATOM_UDEF_STEREO_COUNT>
0

> <PUBCHEM_BOND_DEF_STEREO_COUNT>
0

> <PUBCHEM_BOND_UDEF_STEREO_COUNT>
0

> <PUBCHEM_ISOTOPIC_ATOM_COUNT>
0

> <PUBCHEM_COMPONENT_COUNT>
20

> <PUBCHEM_CACTVS_TAUTO_COUNT>
-1

> <PUBCHEM_COORDINATE_TYPE>
1
5
255

$$$$
