14094806
  -OEChem-04042512382D

 67  0  0     0  0  0  0  0  0999 V2000
    2.5000   21.2500    0.0000 W   0  0  0  0  0  0  0  0  0  0  0  0
    7.5000   27.5000    0.0000 W   0  0  0  0  0  0  0  0  0  0  0  0
   10.0000   23.7500    0.0000 W   0  0  0  0  0  0  0  0  0  0  0  0
   12.5000   26.2500    0.0000 W   0  0  0  0  0  0  0  0  0  0  0  0
   10.0000   26.2500    0.0000 W   0  0  0  0  0  0  0  0  0  0  0  0
    7.5000   25.0000    0.0000 W   0  0  0  0  0  0  0  0  0  0  0  0
    5.0000   26.2500    0.0000 W   0  0  0  0  0  0  0  0  0  0  0  0
    2.5000   26.2500    0.0000 W   0  0  0  0  0  0  0  0  0  0  0  0
    0.0000   26.2500    0.0000 W   0  0  0  0  0  0  0  0  0  0  0  0
   12.5000   23.7500    0.0000 W   0  0  0  0  0  0  0  0  0  0  0  0
    5.0000   23.7500    0.0000 W   0  0  0  0  0  0  0  0  0  0  0  0
    2.5000   23.7500    0.0000 W   0  0  0  0  0  0  0  0  0  0  0  0
    0.0000   23.7500    0.0000 W   0  0  0  0  0  0  0  0  0  0  0  0
   12.5000   21.2500    0.0000 W   0  0  0  0  0  0  0  0  0  0  0  0
   10.0000   21.2500    0.0000 W   0  0  0  0  0  0  0  0  0  0  0  0
    7.5000   20.0000    0.0000 W   0  0  0  0  0  0  0  0  0  0  0  0
    5.0000   21.2500    0.0000 W   0  0  0  0  0  0  0  0  0  0  0  0
    7.5000   22.5000    0.0000 W   0  0  0  0  0  0  0  0  0  0  0  0
    2.5000    8.7500    0.0000 O   0  6  0  0  0  0  0  0  0  0  0  0
    0.0000    8.7500    0.0000 O   0  6  0  0  0  0  0  0  0  0  0  0
    0.0000    1.2500    0.0000 O   0  6  0  0  0  0  0  0  0  0  0  0
    2.5000    1.2500    0.0000 O   0  6  0  0  0  0  0  0  0  0  0  0
    5.0000    1.2500    0.0000 O   0  6  0  0  0  0  0  0  0  0  0  0
    7.5000    0.0000    0.0000 O   0  6  0  0  0  0  0  0  0  0  0  0
   10.0000    1.2500    0.0000 O   0  6  0  0  0  0  0  0  0  0  0  0
   12.5000    1.2500    0.0000 O   0  6  0  0  0  0  0  0  0  0  0  0
    0.0000    3.7500    0.0000 O   0  6  0  0  0  0  0  0  0  0  0  0
    2.5000    3.7500    0.0000 O   0  6  0  0  0  0  0  0  0  0  0  0
    5.0000   13.7500    0.0000 O   0  6  0  0  0  0  0  0  0  0  0  0
   12.5000    6.2500    0.0000 O   0  6  0  0  0  0  0  0  0  0  0  0
    5.0000    8.7500    0.0000 O   0  6  0  0  0  0  0  0  0  0  0  0
    7.5000    7.5000    0.0000 O   0  6  0  0  0  0  0  0  0  0  0  0
   10.0000    8.7500    0.0000 O   0  6  0  0  0  0  0  0  0  0  0  0
   12.5000    8.7500    0.0000 O   0  6  0  0  0  0  0  0  0  0  0  0
    0.0000   11.2500    0.0000 O   0  6  0  0  0  0  0  0  0  0  0  0
    2.5000   11.2500    0.0000 O   0  6  0  0  0  0  0  0  0  0  0  0
    5.0000   11.2500    0.0000 O   0  6  0  0  0  0  0  0  0  0  0  0
    7.5000   10.0000    0.0000 O   0  6  0  0  0  0  0  0  0  0  0  0
   10.0000   11.2500    0.0000 O   0  6  0  0  0  0  0  0  0  0  0  0
   12.5000   11.2500    0.0000 O   0  6  0  0  0  0  0  0  0  0  0  0
    0.0000   13.7500    0.0000 O   0  6  0  0  0  0  0  0  0  0  0  0
    2.5000   13.7500    0.0000 O   0  6  0  0  0  0  0  0  0  0  0  0
   10.0000   18.7500    0.0000 O   0  6  0  0  0  0  0  0  0  0  0  0
   10.0000   13.7500    0.0000 O   0  6  0  0  0  0  0  0  0  0  0  0
   12.5000   13.7500    0.0000 O   0  6  0  0  0  0  0  0  0  0  0  0
    0.0000   16.2500    0.0000 O   0  6  0  0  0  0  0  0  0  0  0  0
    2.5000   16.2500    0.0000 O   0  6  0  0  0  0  0  0  0  0  0  0
    5.0000   16.2500    0.0000 O   0  6  0  0  0  0  0  0  0  0  0  0
    7.5000   15.0000    0.0000 O   0  6  0  0  0  0  0  0  0  0  0  0
   10.0000   16.2500    0.0000 O   0  6  0  0  0  0  0  0  0  0  0  0
   12.5000   16.2500    0.0000 O   0  6  0  0  0  0  0  0  0  0  0  0
    0.0000   18.7500    0.0000 O   0  6  0  0  0  0  0  0  0  0  0  0
    2.5000   18.7500    0.0000 O   0  6  0  0  0  0  0  0  0  0  0  0
    5.0000   18.7500    0.0000 O   0  6  0  0  0  0  0  0  0  0  0  0
    7.5000   17.5000    0.0000 O   0  6  0  0  0  0  0  0  0  0  0  0
    7.5000    2.5000    0.0000 O   0  6  0  0  0  0  0  0  0  0  0  0
   12.5000   18.7500    0.0000 O   0  6  0  0  0  0  0  0  0  0  0  0
    0.0000   21.2500    0.0000 O   0  6  0  0  0  0  0  0  0  0  0  0
    7.5000   12.5000    0.0000 O   0  6  0  0  0  0  0  0  0  0  0  0
    5.0000    3.7500    0.0000 O   0  6  0  0  0  0  0  0  0  0  0  0
   10.0000    6.2500    0.0000 O   0  6  0  0  0  0  0  0  0  0  0  0
    7.5000    5.0000    0.0000 O   0  6  0  0  0  0  0  0  0  0  0  0
    5.0000    6.2500    0.0000 O   0  6  0  0  0  0  0  0  0  0  0  0
    2.5000    6.2500    0.0000 O   0  6  0  0  0  0  0  0  0  0  0  0
    0.0000    6.2500    0.0000 O   0  6  0  0  0  0  0  0  0  0  0  0
   12.5000    3.7500    0.0000 O   0  6  0  0  0  0  0  0  0  0  0  0
   10.0000    3.7500    0.0000 O   0  6  0  0  0  0  0  0  0  0  0  0
M  CHG  8  19  -2  20  -2  21  -2  22  -2  23  -2  24  -2  25  -2  26  -2
M  CHG  8  27  -2  28  -2  29  -2  30  -2  31  -2  32  -2  33  -2  34  -2
M  CHG  8  35  -2  36  -2  37  -2  38  -2  39  -2  40  -2  41  -2  42  -2
M  CHG  8  43  -2  44  -2  45  -2  46  -2  47  -2  48  -2  49  -2  50  -2
M  CHG  8  51  -2  52  -2  53  -2  54  -2  55  -2  56  -2  57  -2  58  -2
M  CHG  8  59  -2  60  -2  61  -2  62  -2  63  -2  64  -2  65  -2  66  -2
M  CHG  1  67  -2
M  END
> <PUBCHEM_COMPOUND_CID>
14094806

> <PUBCHEM_COMPOUND_CANONICALIZED>
1

> <PUBCHEM_CACTVS_COMPLEXITY>
0

> <PUBCHEM_CACTVS_HBOND_ACCEPTOR>
49

> <PUBCHEM_CACTVS_HBOND_DONOR>
0

> <PUBCHEM_CACTVS_ROTATABLE_BOND>
0

> <PUBCHEM_CACTVS_SUBSKEYS>
AAADcQAAPgAAAAAAAAAAQAAAAAAAAAAAAAAAAAAAAAAAAAAAAAAAAAAAAAAAAAAAAAAAAAAAAAAAAAAAAAAAAAAAAAAAAAAAAAAAAAAAAAAAAAAAAAAAAAAAAAAAAAAAAAAAAAAAAAAAAAAAAAAAAAAAAA==

> <PUBCHEM_IUPAC_OPENEYE_NAME>
oxygen(2-);tungsten

> <PUBCHEM_IUPAC_CAS_NAME>
oxygen(2-);tungsten

> <PUBCHEM_IUPAC_NAME_MARKUP>
oxygen(2-);tungsten

> <PUBCHEM_IUPAC_NAME>
oxygen(2-);tungsten

> <PUBCHEM_IUPAC_SYSTEMATIC_NAME>
oxygen(2-);tungsten

> <PUBCHEM_IUPAC_TRADITIONAL_NAME>
oxygen(2-);tungsten

> <PUBCHEM_IUPAC_INCHI>
InChI=1S/49O.18W/q49*-2;;;;;;;;;;;;;;;;;;

> <PUBCHEM_IUPAC_INCHIKEY>
LWEQDPAFGJSYKC-UHFFFAOYSA-N

> <PUBCHEM_EXACT_MASS>
4092.86972

> <PUBCHEM_MOLECULAR_FORMULA>
O49W18-98

> <PUBCHEM_MOLECULAR_WEIGHT>
4093

> <PUBCHEM_SMILES>
[O-2].[O-2].[O-2].[O-2].[O-2].[O-2].[O-2].[O-2].[O-2].[O-2].[O-2].[O-2].[O-2].[O-2].[O-2].[O-2].[O-2].[O-2].[O-2].[O-2].[O-2].[O-2].[O-2].[O-2].[O-2].[O-2].[O-2].[O-2].[O-2].[O-2].[O-2].[O-2].[O-2].[O-2].[O-2].[O-2].[O-2].[O-2].[O-2].[O-2].[O-2].[O-2].[O-2].[O-2].[O-2].[O-2].[O-2].[O-2].[O-2].[W].[W].[W].[W].[W].[W].[W].[W].[W].[W].[W].[W].[W].[W].[W].[W].[W].[W]

> <PUBCHEM_OPENEYE_CAN_SMILES>
[O-2].[O-2].[O-2].[O-2].[O-2].[O-2].[O-2].[O-2].[O-2].[O-2].[O-2].[O-2].[O-2].[O-2].[O-2].[O-2].[O-2].[O-2].[O-2].[O-2].[O-2].[O-2].[O-2].[O-2].[O-2].[O-2].[O-2].[O-2].[O-2].[O-2].[O-2].[O-2].[O-2].[O-2].[O-2].[O-2].[O-2].[O-2].[O-2].[O-2].[O-2].[O-2].[O-2].[O-2].[O-2].[O-2].[O-2].[O-2].[O-2].[W].[W].[W].[W].[W].[W].[W].[W].[W].[W].[W].[W].[W].[W].[W].[W].[W].[W]

> <PUBCHEM_OPENEYE_ISO_SMILES>
[O-2].[O-2].[O-2].[O-2].[O-2].[O-2].[O-2].[O-2].[O-2].[O-2].[O-2].[O-2].[O-2].[O-2].[O-2].[O-2].[O-2].[O-2].[O-2].[O-2].[O-2].[O-2].[O-2].[O-2].[O-2].[O-2].[O-2].[O-2].[O-2].[O-2].[O-2].[O-2].[O-2].[O-2].[O-2].[O-2].[O-2].[O-2].[O-2].[O-2].[O-2].[O-2].[O-2].[O-2].[O-2].[O-2].[O-2].[O-2].[O-2].[W].[W].[W].[W].[W].[W].[W].[W].[W].[W].[W].[W].[W].[W].[W].[W].[W].[W]

> <PUBCHEM_CACTVS_TPSA>
49

> <PUBCHEM_MONOISOTOPIC_WEIGHT>
4094.8676

> <PUBCHEM_TOTAL_CHARGE>
-98

> <PUBCHEM_HEAVY_ATOM_COUNT>
67

> <PUBCHEM_ATOM_DEF_STEREO_COUNT>
0

> <PUBCHEM_ATOM_UDEF_STEREO_COUNT>
0

> <PUBCHEM_BOND_DEF_STEREO_COUNT>
0

> <PUBCHEM_BOND_UDEF_STEREO_COUNT>
0

> <PUBCHEM_ISOTOPIC_ATOM_COUNT>
0

> <PUBCHEM_COMPONENT_COUNT>
67

> <PUBCHEM_CACTVS_TAUTO_COUNT>
-1

> <PUBCHEM_COORDINATE_TYPE>
1
5
255

$$$$
