14419064
  -OEChem-04042506002D

 82 83  0     0  0  0  0  0  0999 V2000
    3.0000    1.0000    0.0000 O   0  0  0  0  0  0  0  0  0  0  0  0
    8.1962   -1.0000    0.0000 O   0  0  0  0  0  0  0  0  0  0  0  0
    3.8660    5.5000    0.0000 N   0  0  0  0  0  0  0  0  0  0  0  0
    7.3301   -5.5000    0.0000 N   0  0  0  0  0  0  0  0  0  0  0  0
    3.8660    2.5000    0.0000 N   0  0  0  0  0  0  0  0  0  0  0  0
    7.3301   -2.5000    0.0000 N   0  0  0  0  0  0  0  0  0  0  0  0
    4.7320    5.0000    0.0000 C   0  0  0  0  0  0  0  0  0  0  0  0
    3.0000    5.0000    0.0000 C   0  0  0  0  0  0  0  0  0  0  0  0
    8.1962   -5.0000    0.0000 C   0  0  0  0  0  0  0  0  0  0  0  0
    6.4641   -5.0000    0.0000 C   0  0  0  0  0  0  0  0  0  0  0  0
    3.8660    3.5000    0.0000 C   0  0  0  0  0  0  0  0  0  0  0  0
    7.3301   -3.5000    0.0000 C   0  0  0  0  0  0  0  0  0  0  0  0
    4.7320    4.0000    0.0000 C   0  0  0  0  0  0  0  0  0  0  0  0
    3.0000    4.0000    0.0000 C   0  0  0  0  0  0  0  0  0  0  0  0
    8.1962   -4.0000    0.0000 C   0  0  0  0  0  0  0  0  0  0  0  0
    6.4641   -4.0000    0.0000 C   0  0  0  0  0  0  0  0  0  0  0  0
    5.2320    5.8660    0.0000 C   0  0  0  0  0  0  0  0  0  0  0  0
    5.7320    5.0000    0.0000 C   0  0  0  0  0  0  0  0  0  0  0  0
    2.5000    5.8660    0.0000 C   0  0  0  0  0  0  0  0  0  0  0  0
    2.0000    5.0000    0.0000 C   0  0  0  0  0  0  0  0  0  0  0  0
    9.1962   -5.0000    0.0000 C   0  0  0  0  0  0  0  0  0  0  0  0
    8.6962   -5.8660    0.0000 C   0  0  0  0  0  0  0  0  0  0  0  0
    5.4641   -5.0000    0.0000 C   0  0  0  0  0  0  0  0  0  0  0  0
    5.9641   -5.8660    0.0000 C   0  0  0  0  0  0  0  0  0  0  0  0
    4.7320    2.0000    0.0000 C   0  0  0  0  0  0  0  0  0  0  0  0
    6.4641   -2.0000    0.0000 C   0  0  0  0  0  0  0  0  0  0  0  0
    4.7320    1.0000    0.0000 C   0  0  0  0  0  0  0  0  0  0  0  0
    6.4641   -1.0000    0.0000 C   0  0  0  0  0  0  0  0  0  0  0  0
    5.5981    0.5000    0.0000 C   0  0  0  0  0  0  0  0  0  0  0  0
    5.5981   -0.5000    0.0000 C   0  0  0  0  0  0  0  0  0  0  0  0
    3.0000    2.0000    0.0000 C   0  0  0  0  0  0  0  0  0  0  0  0
    8.1962   -2.0000    0.0000 C   0  0  0  0  0  0  0  0  0  0  0  0
    4.4030    3.1900    0.0000 H   0  0  0  0  0  0  0  0  0  0  0  0
    7.8671   -3.1900    0.0000 H   0  0  0  0  0  0  0  0  0  0  0  0
    4.9441    3.4174    0.0000 H   0  0  0  0  0  0  0  0  0  0  0  0
    5.3426    4.1077    0.0000 H   0  0  0  0  0  0  0  0  0  0  0  0
    2.3894    4.1077    0.0000 H   0  0  0  0  0  0  0  0  0  0  0  0
    2.7880    3.4174    0.0000 H   0  0  0  0  0  0  0  0  0  0  0  0
    8.8067   -4.1077    0.0000 H   0  0  0  0  0  0  0  0  0  0  0  0
    8.4082   -3.4174    0.0000 H   0  0  0  0  0  0  0  0  0  0  0  0
    6.2520   -3.4174    0.0000 H   0  0  0  0  0  0  0  0  0  0  0  0
    5.8535   -4.1077    0.0000 H   0  0  0  0  0  0  0  0  0  0  0  0
    3.8660    6.1200    0.0000 H   0  0  0  0  0  0  0  0  0  0  0  0
    7.3301   -6.1200    0.0000 H   0  0  0  0  0  0  0  0  0  0  0  0
    5.7690    5.5560    0.0000 H   0  0  0  0  0  0  0  0  0  0  0  0
    5.5420    6.4030    0.0000 H   0  0  0  0  0  0  0  0  0  0  0  0
    4.6951    6.1760    0.0000 H   0  0  0  0  0  0  0  0  0  0  0  0
    5.7320    4.3800    0.0000 H   0  0  0  0  0  0  0  0  0  0  0  0
    6.3520    5.0000    0.0000 H   0  0  0  0  0  0  0  0  0  0  0  0
    5.7320    5.6200    0.0000 H   0  0  0  0  0  0  0  0  0  0  0  0
    3.0369    6.1760    0.0000 H   0  0  0  0  0  0  0  0  0  0  0  0
    2.1900    6.4030    0.0000 H   0  0  0  0  0  0  0  0  0  0  0  0
    1.9631    5.5560    0.0000 H   0  0  0  0  0  0  0  0  0  0  0  0
    2.0000    5.6200    0.0000 H   0  0  0  0  0  0  0  0  0  0  0  0
    1.3800    5.0000    0.0000 H   0  0  0  0  0  0  0  0  0  0  0  0
    2.0000    4.3800    0.0000 H   0  0  0  0  0  0  0  0  0  0  0  0
    9.1962   -5.6200    0.0000 H   0  0  0  0  0  0  0  0  0  0  0  0
    9.8162   -5.0000    0.0000 H   0  0  0  0  0  0  0  0  0  0  0  0
    9.1962   -4.3800    0.0000 H   0  0  0  0  0  0  0  0  0  0  0  0
    8.1592   -6.1760    0.0000 H   0  0  0  0  0  0  0  0  0  0  0  0
    9.0062   -6.4030    0.0000 H   0  0  0  0  0  0  0  0  0  0  0  0
    9.2331   -5.5560    0.0000 H   0  0  0  0  0  0  0  0  0  0  0  0
    5.4641   -4.3800    0.0000 H   0  0  0  0  0  0  0  0  0  0  0  0
    4.8441   -5.0000    0.0000 H   0  0  0  0  0  0  0  0  0  0  0  0
    5.4641   -5.6200    0.0000 H   0  0  0  0  0  0  0  0  0  0  0  0
    5.4272   -5.5560    0.0000 H   0  0  0  0  0  0  0  0  0  0  0  0
    5.6541   -6.4030    0.0000 H   0  0  0  0  0  0  0  0  0  0  0  0
    6.5010   -6.1760    0.0000 H   0  0  0  0  0  0  0  0  0  0  0  0
    5.3426    1.8923    0.0000 H   0  0  0  0  0  0  0  0  0  0  0  0
    4.9441    2.5826    0.0000 H   0  0  0  0  0  0  0  0  0  0  0  0
    5.8535   -1.8923    0.0000 H   0  0  0  0  0  0  0  0  0  0  0  0
    6.2520   -2.5826    0.0000 H   0  0  0  0  0  0  0  0  0  0  0  0
    4.1215    1.1077    0.0000 H   0  0  0  0  0  0  0  0  0  0  0  0
    4.5200    0.4174    0.0000 H   0  0  0  0  0  0  0  0  0  0  0  0
    7.0747   -1.1077    0.0000 H   0  0  0  0  0  0  0  0  0  0  0  0
    6.6762   -0.4174    0.0000 H   0  0  0  0  0  0  0  0  0  0  0  0
    6.2087    0.3923    0.0000 H   0  0  0  0  0  0  0  0  0  0  0  0
    5.8101    1.0826    0.0000 H   0  0  0  0  0  0  0  0  0  0  0  0
    4.9875   -0.3923    0.0000 H   0  0  0  0  0  0  0  0  0  0  0  0
    5.3860   -1.0826    0.0000 H   0  0  0  0  0  0  0  0  0  0  0  0
    2.4631    2.3100    0.0000 H   0  0  0  0  0  0  0  0  0  0  0  0
    8.7331   -2.3100    0.0000 H   0  0  0  0  0  0  0  0  0  0  0  0
  1 31  2  0  0  0  0
  2 32  2  0  0  0  0
  3  7  1  0  0  0  0
  3  8  1  0  0  0  0
  3 43  1  0  0  0  0
  4  9  1  0  0  0  0
  4 10  1  0  0  0  0
  4 44  1  0  0  0  0
  5 11  1  0  0  0  0
  5 25  1  0  0  0  0
  5 31  1  0  0  0  0
  6 12  1  0  0  0  0
  6 26  1  0  0  0  0
  6 32  1  0  0  0  0
  7 13  1  0  0  0  0
  7 17  1  0  0  0  0
  7 18  1  0  0  0  0
  8 14  1  0  0  0  0
  8 19  1  0  0  0  0
  8 20  1  0  0  0  0
  9 15  1  0  0  0  0
  9 21  1  0  0  0  0
  9 22  1  0  0  0  0
 10 16  1  0  0  0  0
 10 23  1  0  0  0  0
 10 24  1  0  0  0  0
 11 13  1  0  0  0  0
 11 14  1  0  0  0  0
 11 33  1  0  0  0  0
 12 15  1  0  0  0  0
 12 16  1  0  0  0  0
 12 34  1  0  0  0  0
 13 35  1  0  0  0  0
 13 36  1  0  0  0  0
 14 37  1  0  0  0  0
 14 38  1  0  0  0  0
 15 39  1  0  0  0  0
 15 40  1  0  0  0  0
 16 41  1  0  0  0  0
 16 42  1  0  0  0  0
 17 45  1  0  0  0  0
 17 46  1  0  0  0  0
 17 47  1  0  0  0  0
 18 48  1  0  0  0  0
 18 49  1  0  0  0  0
 18 50  1  0  0  0  0
 19 51  1  0  0  0  0
 19 52  1  0  0  0  0
 19 53  1  0  0  0  0
 20 54  1  0  0  0  0
 20 55  1  0  0  0  0
 20 56  1  0  0  0  0
 21 57  1  0  0  0  0
 21 58  1  0  0  0  0
 21 59  1  0  0  0  0
 22 60  1  0  0  0  0
 22 61  1  0  0  0  0
 22 62  1  0  0  0  0
 23 63  1  0  0  0  0
 23 64  1  0  0  0  0
 23 65  1  0  0  0  0
 24 66  1  0  0  0  0
 24 67  1  0  0  0  0
 24 68  1  0  0  0  0
 25 27  1  0  0  0  0
 25 69  1  0  0  0  0
 25 70  1  0  0  0  0
 26 28  1  0  0  0  0
 26 71  1  0  0  0  0
 26 72  1  0  0  0  0
 27 29  1  0  0  0  0
 27 73  1  0  0  0  0
 27 74  1  0  0  0  0
 28 30  1  0  0  0  0
 28 75  1  0  0  0  0
 28 76  1  0  0  0  0
 29 30  1  0  0  0  0
 29 77  1  0  0  0  0
 29 78  1  0  0  0  0
 30 79  1  0  0  0  0
 30 80  1  0  0  0  0
 31 81  1  0  0  0  0
 32 82  1  0  0  0  0
M  END
> <PUBCHEM_COMPOUND_CID>
14419064

> <PUBCHEM_COMPOUND_CANONICALIZED>
1

> <PUBCHEM_CACTVS_COMPLEXITY>
543

> <PUBCHEM_CACTVS_HBOND_ACCEPTOR>
4

> <PUBCHEM_CACTVS_HBOND_DONOR>
2

> <PUBCHEM_CACTVS_ROTATABLE_BOND>
9

> <PUBCHEM_CACTVS_SUBSKEYS>
AAADcfB7sAAAAAAAAAAAAAAAAAAAAAAAAAAsWAAAAAAAAAAAAAAAHgAQAAAADKjBAAYCAAPAAAAIAAAAkAAAAAAAAAAAAAAIAAAAAAIAwAAEAAAAFgCAAAEQgEAMAAAAAAAAAAAAAAAAAAAAAAAAAAAAAA==

> <PUBCHEM_IUPAC_OPENEYE_NAME>
N-[6-[formyl-(2,2,6,6-tetramethyl-4-piperidyl)amino]hexyl]-N-(2,2,6,6-tetramethyl-4-piperidyl)formamide

> <PUBCHEM_IUPAC_CAS_NAME>
N-[6-[formyl-(2,2,6,6-tetramethyl-4-piperidinyl)amino]hexyl]-N-(2,2,6,6-tetramethyl-4-piperidinyl)formamide

> <PUBCHEM_IUPAC_NAME_MARKUP>
<I>N</I>-[6-[formyl-(2,2,6,6-tetramethylpiperidin-4-yl)amino]hexyl]-<I>N</I>-(2,2,6,6-tetramethylpiperidin-4-yl)formamide

> <PUBCHEM_IUPAC_NAME>
N-[6-[formyl-(2,2,6,6-tetramethylpiperidin-4-yl)amino]hexyl]-N-(2,2,6,6-tetramethylpiperidin-4-yl)formamide

> <PUBCHEM_IUPAC_SYSTEMATIC_NAME>
N-[6-[methanoyl-(2,2,6,6-tetramethylpiperidin-4-yl)amino]hexyl]-N-(2,2,6,6-tetramethylpiperidin-4-yl)methanamide

> <PUBCHEM_IUPAC_TRADITIONAL_NAME>
N-[6-[formyl-(2,2,6,6-tetramethyl-4-piperidyl)amino]hexyl]-N-(2,2,6,6-tetramethyl-4-piperidyl)formamide

> <PUBCHEM_IUPAC_INCHI>
InChI=1S/C26H50N4O2/c1-23(2)15-21(16-24(3,4)27-23)29(19-31)13-11-9-10-12-14-30(20-32)22-17-25(5,6)28-26(7,8)18-22/h19-22,27-28H,9-18H2,1-8H3

> <PUBCHEM_IUPAC_INCHIKEY>
UONLDZHKYCFZRW-UHFFFAOYSA-N

> <PUBCHEM_XLOGP3_AA>
3.4

> <PUBCHEM_EXACT_MASS>
450.39337685

> <PUBCHEM_MOLECULAR_FORMULA>
C26H50N4O2

> <PUBCHEM_MOLECULAR_WEIGHT>
450.7

> <PUBCHEM_SMILES>
CC1(CC(CC(N1)(C)C)N(CCCCCCN(C=O)C2CC(NC(C2)(C)C)(C)C)C=O)C

> <PUBCHEM_OPENEYE_CAN_SMILES>
CC1(CC(CC(N1)(C)C)N(CCCCCCN(C=O)C2CC(NC(C2)(C)C)(C)C)C=O)C

> <PUBCHEM_OPENEYE_ISO_SMILES>
CC1(CC(CC(N1)(C)C)N(CCCCCCN(C=O)C2CC(NC(C2)(C)C)(C)C)C=O)C

> <PUBCHEM_CACTVS_TPSA>
64.7

> <PUBCHEM_MONOISOTOPIC_WEIGHT>
450.39337685

> <PUBCHEM_TOTAL_CHARGE>
0

> <PUBCHEM_HEAVY_ATOM_COUNT>
32

> <PUBCHEM_ATOM_DEF_STEREO_COUNT>
0

> <PUBCHEM_ATOM_UDEF_STEREO_COUNT>
0

> <PUBCHEM_BOND_DEF_STEREO_COUNT>
0

> <PUBCHEM_BOND_UDEF_STEREO_COUNT>
0

> <PUBCHEM_ISOTOPIC_ATOM_COUNT>
0

> <PUBCHEM_COMPONENT_COUNT>
1

> <PUBCHEM_CACTVS_TAUTO_COUNT>
-1

> <PUBCHEM_COORDINATE_TYPE>
1
5
255

$$$$
