14474
  -OEChem-04042506012D

 10  9  0     0  0  0  0  0  0999 V2000
    2.0000   -0.7500    0.0000 F   0  0  0  0  0  0  0  0  0  0  0  0
    2.3660    0.6160    0.0000 F   0  0  0  0  0  0  0  0  0  0  0  0
    3.3660   -1.1160    0.0000 F   0  0  0  0  0  0  0  0  0  0  0  0
    4.5981   -1.2500    0.0000 F   0  0  0  0  0  0  0  0  0  0  0  0
    6.3301   -0.2500    0.0000 F   0  0  0  0  0  0  0  0  0  0  0  0
    5.4641    1.2500    0.0000 F   0  0  0  0  0  0  0  0  0  0  0  0
    3.7320    0.2500    0.0000 O   0  0  0  0  0  0  0  0  0  0  0  0
    2.8660   -0.2500    0.0000 C   0  0  0  0  0  0  0  0  0  0  0  0
    4.5981   -0.2500    0.0000 C   0  0  0  0  0  0  0  0  0  0  0  0
    5.4641    0.2500    0.0000 C   0  0  0  0  0  0  0  0  0  0  0  0
  1  8  1  0  0  0  0
  2  8  1  0  0  0  0
  3  8  1  0  0  0  0
  4  9  1  0  0  0  0
  5 10  1  0  0  0  0
  6 10  1  0  0  0  0
  7  8  1  0  0  0  0
  7  9  1  0  0  0  0
  9 10  2  0  0  0  0
M  END
> <PUBCHEM_COMPOUND_CID>
14474

> <PUBCHEM_COMPOUND_CANONICALIZED>
1

> <PUBCHEM_CACTVS_COMPLEXITY>
142

> <PUBCHEM_CACTVS_HBOND_ACCEPTOR>
7

> <PUBCHEM_CACTVS_HBOND_DONOR>
0

> <PUBCHEM_CACTVS_ROTATABLE_BOND>
1

> <PUBCHEM_CACTVS_SUBSKEYS>
AAADcQBAIcAAAAAAAAAAAAAAAAAAAAAAAAAAAAAAAAAAAAAAAAAACwAAAAAAAAAAgBAAAAAABACAAAAAAAAACAAAAAAAAAAAAAAAAAAAAAAAAAAAAAAAAAAAAAAAAAAAAAAAAAAAAAAAAAAAAAAAAAAAAA==

> <PUBCHEM_IUPAC_OPENEYE_NAME>
1,1,2-trifluoro-2-(trifluoromethoxy)ethylene

> <PUBCHEM_IUPAC_CAS_NAME>
1,1,2-trifluoro-2-(trifluoromethoxy)ethene

> <PUBCHEM_IUPAC_NAME_MARKUP>
1,1,2-trifluoro-2-(trifluoromethoxy)ethene

> <PUBCHEM_IUPAC_NAME>
1,1,2-trifluoro-2-(trifluoromethoxy)ethene

> <PUBCHEM_IUPAC_SYSTEMATIC_NAME>
1,1,2-tris(fluoranyl)-2-(trifluoromethyloxy)ethene

> <PUBCHEM_IUPAC_TRADITIONAL_NAME>
1,1,2-trifluoro-2-(trifluoromethoxy)ethylene

> <PUBCHEM_IUPAC_INCHI>
InChI=1S/C3F6O/c4-1(5)2(6)10-3(7,8)9

> <PUBCHEM_IUPAC_INCHIKEY>
BLTXWCKMNMYXEA-UHFFFAOYSA-N

> <PUBCHEM_XLOGP3_AA>
2.4

> <PUBCHEM_EXACT_MASS>
165.98533359

> <PUBCHEM_MOLECULAR_FORMULA>
C3F6O

> <PUBCHEM_MOLECULAR_WEIGHT>
166.02

> <PUBCHEM_SMILES>
C(=C(F)F)(OC(F)(F)F)F

> <PUBCHEM_OPENEYE_CAN_SMILES>
C(=C(F)F)(OC(F)(F)F)F

> <PUBCHEM_OPENEYE_ISO_SMILES>
C(=C(F)F)(OC(F)(F)F)F

> <PUBCHEM_CACTVS_TPSA>
9.2

> <PUBCHEM_MONOISOTOPIC_WEIGHT>
165.98533359

> <PUBCHEM_TOTAL_CHARGE>
0

> <PUBCHEM_HEAVY_ATOM_COUNT>
10

> <PUBCHEM_ATOM_DEF_STEREO_COUNT>
0

> <PUBCHEM_ATOM_UDEF_STEREO_COUNT>
0

> <PUBCHEM_BOND_DEF_STEREO_COUNT>
0

> <PUBCHEM_BOND_UDEF_STEREO_COUNT>
0

> <PUBCHEM_ISOTOPIC_ATOM_COUNT>
0

> <PUBCHEM_COMPONENT_COUNT>
1

> <PUBCHEM_CACTVS_TAUTO_COUNT>
-1

> <PUBCHEM_COORDINATE_TYPE>
1
5
255

$$$$
