14716
  -OEChem-04042506012D

 52 53  0     1  0  0  0  0  0999 V2000
    7.0000    0.0000    0.0000 P   0  0  0  0  0  0  0  0  0  0  0  0
    6.5000    0.8660    0.0000 O   0  0  0  0  0  0  0  0  0  0  0  0
    7.8660    0.5000    0.0000 O   0  0  0  0  0  0  0  0  0  0  0  0
    6.1340   -0.5000    0.0000 O   0  0  0  0  0  0  0  0  0  0  0  0
    7.5000   -0.8660    0.0000 O   0  0  0  0  0  0  0  0  0  0  0  0
    5.0000    1.7320    0.0000 C   0  0  3  0  0  0  0  0  0  0  0  0
    4.0000    1.7320    0.0000 C   0  0  0  0  0  0  0  0  0  0  0  0
    5.5000    2.5981    0.0000 C   0  0  0  0  0  0  0  0  0  0  0  0
    3.5000    2.5981    0.0000 C   0  0  0  0  0  0  0  0  0  0  0  0
    5.5000    0.8660    0.0000 C   0  0  0  0  0  0  0  0  0  0  0  0
    2.5000    2.5981    0.0000 C   0  0  0  0  0  0  0  0  0  0  0  0
    5.0000    3.4641    0.0000 C   0  0  0  0  0  0  0  0  0  0  0  0
    2.0000    3.4641    0.0000 C   0  0  0  0  0  0  0  0  0  0  0  0
    7.8660    1.5000    0.0000 C   0  0  0  0  0  0  0  0  0  0  0  0
    6.1340   -1.5000    0.0000 C   0  0  0  0  0  0  0  0  0  0  0  0
    8.7320    2.0000    0.0000 C   0  0  0  0  0  0  0  0  0  0  0  0
    7.0000   -2.0000    0.0000 C   0  0  0  0  0  0  0  0  0  0  0  0
    7.0000    2.0000    0.0000 C   0  0  0  0  0  0  0  0  0  0  0  0
    5.2680   -2.0000    0.0000 C   0  0  0  0  0  0  0  0  0  0  0  0
    8.7320    3.0000    0.0000 C   0  0  0  0  0  0  0  0  0  0  0  0
    7.0000   -3.0000    0.0000 C   0  0  0  0  0  0  0  0  0  0  0  0
    7.0000    3.0000    0.0000 C   0  0  0  0  0  0  0  0  0  0  0  0
    5.2680   -3.0000    0.0000 C   0  0  0  0  0  0  0  0  0  0  0  0
    7.8660    3.5000    0.0000 C   0  0  0  0  0  0  0  0  0  0  0  0
    6.1340   -3.5000    0.0000 C   0  0  0  0  0  0  0  0  0  0  0  0
    4.6900    2.2690    0.0000 H   0  0  0  0  0  0  0  0  0  0  0  0
    3.4174    1.5200    0.0000 H   0  0  0  0  0  0  0  0  0  0  0  0
    4.1077    1.1215    0.0000 H   0  0  0  0  0  0  0  0  0  0  0  0
    5.9750    2.1996    0.0000 H   0  0  0  0  0  0  0  0  0  0  0  0
    5.9750    2.9966    0.0000 H   0  0  0  0  0  0  0  0  0  0  0  0
    4.0826    2.8101    0.0000 H   0  0  0  0  0  0  0  0  0  0  0  0
    3.3923    3.2087    0.0000 H   0  0  0  0  0  0  0  0  0  0  0  0
    4.9174    0.6540    0.0000 H   0  0  0  0  0  0  0  0  0  0  0  0
    5.6077    0.2554    0.0000 H   0  0  0  0  0  0  0  0  0  0  0  0
    1.9174    2.3860    0.0000 H   0  0  0  0  0  0  0  0  0  0  0  0
    2.6077    1.9875    0.0000 H   0  0  0  0  0  0  0  0  0  0  0  0
    5.5369    3.7741    0.0000 H   0  0  0  0  0  0  0  0  0  0  0  0
    4.6900    4.0010    0.0000 H   0  0  0  0  0  0  0  0  0  0  0  0
    4.4631    3.1541    0.0000 H   0  0  0  0  0  0  0  0  0  0  0  0
    2.5369    3.7741    0.0000 H   0  0  0  0  0  0  0  0  0  0  0  0
    1.6900    4.0010    0.0000 H   0  0  0  0  0  0  0  0  0  0  0  0
    1.4631    3.1541    0.0000 H   0  0  0  0  0  0  0  0  0  0  0  0
    9.2690    1.6900    0.0000 H   0  0  0  0  0  0  0  0  0  0  0  0
    7.5369   -1.6900    0.0000 H   0  0  0  0  0  0  0  0  0  0  0  0
    6.4631    1.6900    0.0000 H   0  0  0  0  0  0  0  0  0  0  0  0
    4.7310   -1.6900    0.0000 H   0  0  0  0  0  0  0  0  0  0  0  0
    9.2690    3.3100    0.0000 H   0  0  0  0  0  0  0  0  0  0  0  0
    7.5369   -3.3100    0.0000 H   0  0  0  0  0  0  0  0  0  0  0  0
    6.4631    3.3100    0.0000 H   0  0  0  0  0  0  0  0  0  0  0  0
    4.7310   -3.3100    0.0000 H   0  0  0  0  0  0  0  0  0  0  0  0
    7.8660    4.1200    0.0000 H   0  0  0  0  0  0  0  0  0  0  0  0
    6.1340   -4.1200    0.0000 H   0  0  0  0  0  0  0  0  0  0  0  0
  1  2  1  0  0  0  0
  1  3  1  0  0  0  0
  1  4  1  0  0  0  0
  1  5  2  0  0  0  0
  2 10  1  0  0  0  0
  3 14  1  0  0  0  0
  4 15  1  0  0  0  0
  6  7  1  0  0  0  0
  6  8  1  0  0  0  0
  6 10  1  0  0  0  0
  6 26  1  0  0  0  0
  7  9  1  0  0  0  0
  7 27  1  0  0  0  0
  7 28  1  0  0  0  0
  8 12  1  0  0  0  0
  8 29  1  0  0  0  0
  8 30  1  0  0  0  0
  9 11  1  0  0  0  0
  9 31  1  0  0  0  0
  9 32  1  0  0  0  0
 10 33  1  0  0  0  0
 10 34  1  0  0  0  0
 11 13  1  0  0  0  0
 11 35  1  0  0  0  0
 11 36  1  0  0  0  0
 12 37  1  0  0  0  0
 12 38  1  0  0  0  0
 12 39  1  0  0  0  0
 13 40  1  0  0  0  0
 13 41  1  0  0  0  0
 13 42  1  0  0  0  0
 14 16  2  0  0  0  0
 14 18  1  0  0  0  0
 15 17  2  0  0  0  0
 15 19  1  0  0  0  0
 16 20  1  0  0  0  0
 16 43  1  0  0  0  0
 17 21  1  0  0  0  0
 17 44  1  0  0  0  0
 18 22  2  0  0  0  0
 18 45  1  0  0  0  0
 19 23  2  0  0  0  0
 19 46  1  0  0  0  0
 20 24  2  0  0  0  0
 20 47  1  0  0  0  0
 21 25  2  0  0  0  0
 21 48  1  0  0  0  0
 22 24  1  0  0  0  0
 22 49  1  0  0  0  0
 23 25  1  0  0  0  0
 23 50  1  0  0  0  0
 24 51  1  0  0  0  0
 25 52  1  0  0  0  0
M  END
> <PUBCHEM_COMPOUND_CID>
14716

> <PUBCHEM_COMPOUND_CANONICALIZED>
1

> <PUBCHEM_CACTVS_COMPLEXITY>
365

> <PUBCHEM_CACTVS_HBOND_ACCEPTOR>
4

> <PUBCHEM_CACTVS_HBOND_DONOR>
0

> <PUBCHEM_CACTVS_ROTATABLE_BOND>
11

> <PUBCHEM_CACTVS_SUBSKEYS>
AAADceB4OAIAAAAAAAAAAAAAAAAAAAAAAAAwYAAAAAAAAAABQAAAGgAAACAADQSgkAIyBoAAARCAQCBCAIACAAAgIAAIiAAGCIgIJiKAERKAMAAkwBEIiAeAwAAOAAAAAAAAAAAAAAAAAAAAAAAAAAAAAA==

> <PUBCHEM_IUPAC_OPENEYE_NAME>
2-ethylhexyl diphenyl phosphate

> <PUBCHEM_IUPAC_CAS_NAME>
phosphoric acid 2-ethylhexyl diphenyl ester

> <PUBCHEM_IUPAC_NAME_MARKUP>
2-ethylhexyl diphenyl phosphate

> <PUBCHEM_IUPAC_NAME>
2-ethylhexyl diphenyl phosphate

> <PUBCHEM_IUPAC_SYSTEMATIC_NAME>
2-ethylhexyl diphenyl phosphate

> <PUBCHEM_IUPAC_TRADITIONAL_NAME>
phosphoric acid 2-ethylhexyl diphenyl ester

> <PUBCHEM_IUPAC_INCHI>
InChI=1S/C20H27O4P/c1-3-5-12-18(4-2)17-22-25(21,23-19-13-8-6-9-14-19)24-20-15-10-7-11-16-20/h6-11,13-16,18H,3-5,12,17H2,1-2H3

> <PUBCHEM_IUPAC_INCHIKEY>
CGSLYBDCEGBZCG-UHFFFAOYSA-N

> <PUBCHEM_XLOGP3_AA>
6.3

> <PUBCHEM_EXACT_MASS>
362.16469634

> <PUBCHEM_MOLECULAR_FORMULA>
C20H27O4P

> <PUBCHEM_MOLECULAR_WEIGHT>
362.4

> <PUBCHEM_SMILES>
CCCCC(CC)COP(=O)(OC1=CC=CC=C1)OC2=CC=CC=C2

> <PUBCHEM_OPENEYE_CAN_SMILES>
CCCCC(CC)COP(=O)(OC1=CC=CC=C1)OC2=CC=CC=C2

> <PUBCHEM_OPENEYE_ISO_SMILES>
CCCCC(CC)COP(=O)(OC1=CC=CC=C1)OC2=CC=CC=C2

> <PUBCHEM_CACTVS_TPSA>
44.8

> <PUBCHEM_MONOISOTOPIC_WEIGHT>
362.16469634

> <PUBCHEM_TOTAL_CHARGE>
0

> <PUBCHEM_HEAVY_ATOM_COUNT>
25

> <PUBCHEM_ATOM_DEF_STEREO_COUNT>
0

> <PUBCHEM_ATOM_UDEF_STEREO_COUNT>
1

> <PUBCHEM_BOND_DEF_STEREO_COUNT>
0

> <PUBCHEM_BOND_UDEF_STEREO_COUNT>
0

> <PUBCHEM_ISOTOPIC_ATOM_COUNT>
0

> <PUBCHEM_COMPONENT_COUNT>
1

> <PUBCHEM_CACTVS_TAUTO_COUNT>
-1

> <PUBCHEM_COORDINATE_TYPE>
1
5
255

> <PUBCHEM_BONDANNOTATIONS>
14  16  8
14  18  8
15  17  8
15  19  8
16  20  8
17  21  8
18  22  8
19  23  8
20  24  8
21  25  8
22  24  8
23  25  8
6  8  3

$$$$
