14746151
  -OEChem-04042512292D

 47 48  0     0  0  0  0  0  0999 V2000
    5.4641   -0.7500    0.0000 O   0  0  0  0  0  0  0  0  0  0  0  0
    2.8660   -4.2500    0.0000 O   0  0  0  0  0  0  0  0  0  0  0  0
    6.3301    0.7500    0.0000 O   0  0  0  0  0  0  0  0  0  0  0  0
    5.4641    5.2500    0.0000 O   0  0  0  0  0  0  0  0  0  0  0  0
    4.5981    0.7500    0.0000 O   0  0  0  0  0  0  0  0  0  0  0  0
    3.7320   -5.7500    0.0000 O   0  0  0  0  0  0  0  0  0  0  0  0
    4.5981   -2.2500    0.0000 C   0  0  0  0  0  0  0  0  0  0  0  0
    3.7320   -2.7500    0.0000 C   0  0  0  0  0  0  0  0  0  0  0  0
    4.5981   -1.2500    0.0000 C   0  0  0  0  0  0  0  0  0  0  0  0
    3.7320   -3.7500    0.0000 C   0  0  0  0  0  0  0  0  0  0  0  0
    6.3301    3.7500    0.0000 C   0  0  0  0  0  0  0  0  0  0  0  0
    6.3301    4.7500    0.0000 C   0  0  0  0  0  0  0  0  0  0  0  0
    7.1962    5.2500    0.0000 C   0  0  0  0  0  0  0  0  0  0  0  0
    6.3301    1.7500    0.0000 C   0  0  0  0  0  0  0  0  0  0  0  0
    5.4641    3.2500    0.0000 C   0  0  0  0  0  0  0  0  0  0  0  0
    7.1962    3.2500    0.0000 C   0  0  0  0  0  0  0  0  0  0  0  0
    5.4641    2.2500    0.0000 C   0  0  0  0  0  0  0  0  0  0  0  0
    7.1962    2.2500    0.0000 C   0  0  0  0  0  0  0  0  0  0  0  0
    5.4641    0.2500    0.0000 C   0  0  0  0  0  0  0  0  0  0  0  0
    7.1962    6.2500    0.0000 C   0  0  0  0  0  0  0  0  0  0  0  0
    8.0622    4.7500    0.0000 C   0  0  0  0  0  0  0  0  0  0  0  0
    8.0622    6.7500    0.0000 C   0  0  0  0  0  0  0  0  0  0  0  0
    8.9282    5.2500    0.0000 C   0  0  0  0  0  0  0  0  0  0  0  0
    2.8660   -5.2500    0.0000 C   0  0  0  0  0  0  0  0  0  0  0  0
    8.9282    6.2500    0.0000 C   0  0  0  0  0  0  0  0  0  0  0  0
    2.0000   -5.7500    0.0000 C   0  0  0  0  0  0  0  0  0  0  0  0
    2.0000   -6.7500    0.0000 C   0  0  0  0  0  0  0  0  0  0  0  0
    4.8101   -2.8326    0.0000 H   0  0  0  0  0  0  0  0  0  0  0  0
    5.2087   -2.1423    0.0000 H   0  0  0  0  0  0  0  0  0  0  0  0
    3.5200   -2.1674    0.0000 H   0  0  0  0  0  0  0  0  0  0  0  0
    3.1215   -2.8577    0.0000 H   0  0  0  0  0  0  0  0  0  0  0  0
    4.3860   -0.6674    0.0000 H   0  0  0  0  0  0  0  0  0  0  0  0
    3.9875   -1.3577    0.0000 H   0  0  0  0  0  0  0  0  0  0  0  0
    3.9441   -4.3326    0.0000 H   0  0  0  0  0  0  0  0  0  0  0  0
    4.3426   -3.6423    0.0000 H   0  0  0  0  0  0  0  0  0  0  0  0
    4.9272    3.5600    0.0000 H   0  0  0  0  0  0  0  0  0  0  0  0
    7.7331    3.5600    0.0000 H   0  0  0  0  0  0  0  0  0  0  0  0
    4.9272    1.9400    0.0000 H   0  0  0  0  0  0  0  0  0  0  0  0
    7.7331    1.9400    0.0000 H   0  0  0  0  0  0  0  0  0  0  0  0
    6.6592    6.5600    0.0000 H   0  0  0  0  0  0  0  0  0  0  0  0
    8.0622    4.1300    0.0000 H   0  0  0  0  0  0  0  0  0  0  0  0
    8.0622    7.3700    0.0000 H   0  0  0  0  0  0  0  0  0  0  0  0
    9.4651    4.9400    0.0000 H   0  0  0  0  0  0  0  0  0  0  0  0
    9.4651    6.5600    0.0000 H   0  0  0  0  0  0  0  0  0  0  0  0
    1.4631   -5.4400    0.0000 H   0  0  0  0  0  0  0  0  0  0  0  0
    1.4631   -7.0600    0.0000 H   0  0  0  0  0  0  0  0  0  0  0  0
    2.5369   -7.0600    0.0000 H   0  0  0  0  0  0  0  0  0  0  0  0
  1  9  1  0  0  0  0
  1 19  1  0  0  0  0
  2 10  1  0  0  0  0
  2 24  1  0  0  0  0
  3 14  1  0  0  0  0
  3 19  1  0  0  0  0
  4 12  2  0  0  0  0
  5 19  2  0  0  0  0
  6 24  2  0  0  0  0
  7  8  1  0  0  0  0
  7  9  1  0  0  0  0
  7 28  1  0  0  0  0
  7 29  1  0  0  0  0
  8 10  1  0  0  0  0
  8 30  1  0  0  0  0
  8 31  1  0  0  0  0
  9 32  1  0  0  0  0
  9 33  1  0  0  0  0
 10 34  1  0  0  0  0
 10 35  1  0  0  0  0
 11 12  1  0  0  0  0
 11 15  2  0  0  0  0
 11 16  1  0  0  0  0
 12 13  1  0  0  0  0
 13 20  2  0  0  0  0
 13 21  1  0  0  0  0
 14 17  2  0  0  0  0
 14 18  1  0  0  0  0
 15 17  1  0  0  0  0
 15 36  1  0  0  0  0
 16 18  2  0  0  0  0
 16 37  1  0  0  0  0
 17 38  1  0  0  0  0
 18 39  1  0  0  0  0
 20 22  1  0  0  0  0
 20 40  1  0  0  0  0
 21 23  2  0  0  0  0
 21 41  1  0  0  0  0
 22 25  2  0  0  0  0
 22 42  1  0  0  0  0
 23 25  1  0  0  0  0
 23 43  1  0  0  0  0
 24 26  1  0  0  0  0
 25 44  1  0  0  0  0
 26 27  2  0  0  0  0
 26 45  1  0  0  0  0
 27 46  1  0  0  0  0
 27 47  1  0  0  0  0
M  END
> <PUBCHEM_COMPOUND_CID>
14746151

> <PUBCHEM_COMPOUND_CANONICALIZED>
1

> <PUBCHEM_CACTVS_COMPLEXITY>
501

> <PUBCHEM_CACTVS_HBOND_ACCEPTOR>
6

> <PUBCHEM_CACTVS_HBOND_DONOR>
0

> <PUBCHEM_CACTVS_ROTATABLE_BOND>
12

> <PUBCHEM_CACTVS_SUBSKEYS>
AAADceB4OAAAAAAAAAAAAAAAAAAAAAAAAAAwYAAAAAAAAAABQAAAGgAAAAAADASgmAIwDoAABACIAqDSCAACCAAkIAAIiAEGCMgcJjKENRqiMyAkwBEMqYfIzODOIAAAAAAAAABAAAAAAAAAAAAAAAAAAA==

> <PUBCHEM_IUPAC_OPENEYE_NAME>
4-(4-benzoylphenoxy)carbonyloxybutyl prop-2-enoate

> <PUBCHEM_IUPAC_CAS_NAME>
2-propenoic acid 4-[(4-benzoylphenoxy)-oxomethoxy]butyl ester

> <PUBCHEM_IUPAC_NAME_MARKUP>
4-(4-benzoylphenoxy)carbonyloxybutyl prop-2-enoate

> <PUBCHEM_IUPAC_NAME>
4-(4-benzoylphenoxy)carbonyloxybutyl prop-2-enoate

> <PUBCHEM_IUPAC_SYSTEMATIC_NAME>
4-[4-(phenylcarbonyl)phenoxy]carbonyloxybutyl prop-2-enoate

> <PUBCHEM_IUPAC_TRADITIONAL_NAME>
acrylic acid 4-(4-benzoylphenoxy)carbonyloxybutyl ester

> <PUBCHEM_IUPAC_INCHI>
InChI=1S/C21H20O6/c1-2-19(22)25-14-6-7-15-26-21(24)27-18-12-10-17(11-13-18)20(23)16-8-4-3-5-9-16/h2-5,8-13H,1,6-7,14-15H2

> <PUBCHEM_IUPAC_INCHIKEY>
XEJDJFHDOJHPJB-UHFFFAOYSA-N

> <PUBCHEM_XLOGP3_AA>
4.6

> <PUBCHEM_EXACT_MASS>
368.12598835

> <PUBCHEM_MOLECULAR_FORMULA>
C21H20O6

> <PUBCHEM_MOLECULAR_WEIGHT>
368.4

> <PUBCHEM_SMILES>
C=CC(=O)OCCCCOC(=O)OC1=CC=C(C=C1)C(=O)C2=CC=CC=C2

> <PUBCHEM_OPENEYE_CAN_SMILES>
C=CC(=O)OCCCCOC(=O)OC1=CC=C(C=C1)C(=O)C2=CC=CC=C2

> <PUBCHEM_OPENEYE_ISO_SMILES>
C=CC(=O)OCCCCOC(=O)OC1=CC=C(C=C1)C(=O)C2=CC=CC=C2

> <PUBCHEM_CACTVS_TPSA>
78.9

> <PUBCHEM_MONOISOTOPIC_WEIGHT>
368.12598835

> <PUBCHEM_TOTAL_CHARGE>
0

> <PUBCHEM_HEAVY_ATOM_COUNT>
27

> <PUBCHEM_ATOM_DEF_STEREO_COUNT>
0

> <PUBCHEM_ATOM_UDEF_STEREO_COUNT>
0

> <PUBCHEM_BOND_DEF_STEREO_COUNT>
0

> <PUBCHEM_BOND_UDEF_STEREO_COUNT>
0

> <PUBCHEM_ISOTOPIC_ATOM_COUNT>
0

> <PUBCHEM_COMPONENT_COUNT>
1

> <PUBCHEM_CACTVS_TAUTO_COUNT>
-1

> <PUBCHEM_COORDINATE_TYPE>
1
5
255

> <PUBCHEM_BONDANNOTATIONS>
11  15  8
11  16  8
13  20  8
13  21  8
14  17  8
14  18  8
15  17  8
16  18  8
20  22  8
21  23  8
22  25  8
23  25  8

$$$$
