15133
  -OEChem-04042505342D

 22 22  0     0  0  0  0  0  0999 V2000
    2.5369   -2.4050    0.0000 N   0  0  0  0  0  0  0  0  0  0  0  0
    5.1350    2.0950    0.0000 N   0  0  0  0  0  0  0  0  0  0  0  0
    3.4030   -0.9050    0.0000 C   0  0  0  0  0  0  0  0  0  0  0  0
    4.2690    0.5950    0.0000 C   0  0  0  0  0  0  0  0  0  0  0  0
    3.4030    0.0950    0.0000 C   0  0  0  0  0  0  0  0  0  0  0  0
    2.5369   -1.4050    0.0000 C   0  0  0  0  0  0  0  0  0  0  0  0
    4.2690    1.5950    0.0000 C   0  0  0  0  0  0  0  0  0  0  0  0
    4.2690   -1.4050    0.0000 C   0  0  0  0  0  0  0  0  0  0  0  0
    5.1350    0.0950    0.0000 C   0  0  0  0  0  0  0  0  0  0  0  0
    5.1350   -0.9050    0.0000 C   0  0  0  0  0  0  0  0  0  0  0  0
    2.8660    0.4050    0.0000 H   0  0  0  0  0  0  0  0  0  0  0  0
    2.3249   -0.8224    0.0000 H   0  0  0  0  0  0  0  0  0  0  0  0
    1.9264   -1.5127    0.0000 H   0  0  0  0  0  0  0  0  0  0  0  0
    4.0569    2.1776    0.0000 H   0  0  0  0  0  0  0  0  0  0  0  0
    3.6584    1.4873    0.0000 H   0  0  0  0  0  0  0  0  0  0  0  0
    4.2690   -2.0250    0.0000 H   0  0  0  0  0  0  0  0  0  0  0  0
    5.6720    0.4050    0.0000 H   0  0  0  0  0  0  0  0  0  0  0  0
    5.6720   -1.2150    0.0000 H   0  0  0  0  0  0  0  0  0  0  0  0
    2.0000   -2.7150    0.0000 H   0  0  0  0  0  0  0  0  0  0  0  0
    3.0739   -2.7150    0.0000 H   0  0  0  0  0  0  0  0  0  0  0  0
    5.1350    2.7150    0.0000 H   0  0  0  0  0  0  0  0  0  0  0  0
    5.6720    1.7850    0.0000 H   0  0  0  0  0  0  0  0  0  0  0  0
  1  6  1  0  0  0  0
  1 19  1  0  0  0  0
  1 20  1  0  0  0  0
  2  7  1  0  0  0  0
  2 21  1  0  0  0  0
  2 22  1  0  0  0  0
  3  5  2  0  0  0  0
  3  6  1  0  0  0  0
  3  8  1  0  0  0  0
  4  5  1  0  0  0  0
  4  7  1  0  0  0  0
  4  9  2  0  0  0  0
  5 11  1  0  0  0  0
  6 12  1  0  0  0  0
  6 13  1  0  0  0  0
  7 14  1  0  0  0  0
  7 15  1  0  0  0  0
  8 10  2  0  0  0  0
  8 16  1  0  0  0  0
  9 10  1  0  0  0  0
  9 17  1  0  0  0  0
 10 18  1  0  0  0  0
M  END
> <PUBCHEM_COMPOUND_CID>
15133

> <PUBCHEM_COMPOUND_CANONICALIZED>
1

> <PUBCHEM_CACTVS_COMPLEXITY>
83.3

> <PUBCHEM_CACTVS_HBOND_ACCEPTOR>
2

> <PUBCHEM_CACTVS_HBOND_DONOR>
2

> <PUBCHEM_CACTVS_ROTATABLE_BOND>
2

> <PUBCHEM_CACTVS_SUBSKEYS>
AAADccBzAAAAAAAAAAAAAAAAAAAAAAAAAAAwAAAAAAAAAAABAAAAHAAQAAAADADBGAQwAIBAAACAAiBCAACCAAAgAAAIiIAABIgIICKAkRGAIABggAAIiAcQgEAOAAACAAAAAAAAAAQAAAAAAAAAAAAAAA==

> <PUBCHEM_IUPAC_OPENEYE_NAME>
[3-(aminomethyl)phenyl]methanamine

> <PUBCHEM_IUPAC_CAS_NAME>
[3-(aminomethyl)phenyl]methanamine

> <PUBCHEM_IUPAC_NAME_MARKUP>
[3-(aminomethyl)phenyl]methanamine

> <PUBCHEM_IUPAC_NAME>
[3-(aminomethyl)phenyl]methanamine

> <PUBCHEM_IUPAC_SYSTEMATIC_NAME>
[3-(aminomethyl)phenyl]methanamine

> <PUBCHEM_IUPAC_TRADITIONAL_NAME>
[3-(aminomethyl)benzyl]amine

> <PUBCHEM_IUPAC_INCHI>
InChI=1S/C8H12N2/c9-5-7-2-1-3-8(4-7)6-10/h1-4H,5-6,9-10H2

> <PUBCHEM_IUPAC_INCHIKEY>
FDLQZKYLHJJBHD-UHFFFAOYSA-N

> <PUBCHEM_XLOGP3>
-0.3

> <PUBCHEM_EXACT_MASS>
136.100048391

> <PUBCHEM_MOLECULAR_FORMULA>
C8H12N2

> <PUBCHEM_MOLECULAR_WEIGHT>
136.19

> <PUBCHEM_SMILES>
C1=CC(=CC(=C1)CN)CN

> <PUBCHEM_OPENEYE_CAN_SMILES>
C1=CC(=CC(=C1)CN)CN

> <PUBCHEM_OPENEYE_ISO_SMILES>
C1=CC(=CC(=C1)CN)CN

> <PUBCHEM_CACTVS_TPSA>
52

> <PUBCHEM_MONOISOTOPIC_WEIGHT>
136.100048391

> <PUBCHEM_TOTAL_CHARGE>
0

> <PUBCHEM_HEAVY_ATOM_COUNT>
10

> <PUBCHEM_ATOM_DEF_STEREO_COUNT>
0

> <PUBCHEM_ATOM_UDEF_STEREO_COUNT>
0

> <PUBCHEM_BOND_DEF_STEREO_COUNT>
0

> <PUBCHEM_BOND_UDEF_STEREO_COUNT>
0

> <PUBCHEM_ISOTOPIC_ATOM_COUNT>
0

> <PUBCHEM_COMPONENT_COUNT>
1

> <PUBCHEM_CACTVS_TAUTO_COUNT>
-1

> <PUBCHEM_COORDINATE_TYPE>
1
5
255

> <PUBCHEM_BONDANNOTATIONS>
3  5  8
3  8  8
4  5  8
4  9  8
8  10  8
9  10  8

$$$$
