15388
  -OEChem-04042506012D

 16 15  0     0  0  0  0  0  0999 V2000
    3.2320    0.5490    0.0000 F   0  0  0  0  0  0  0  0  0  0  0  0
    4.2320   -1.1830    0.0000 F   0  0  0  0  0  0  0  0  0  0  0  0
    4.0981    1.0490    0.0000 F   0  0  0  0  0  0  0  0  0  0  0  0
    5.0981   -0.6830    0.0000 F   0  0  0  0  0  0  0  0  0  0  0  0
    2.0000   -1.3170    0.0000 F   0  0  0  0  0  0  0  0  0  0  0  0
    2.3660    0.0490    0.0000 F   0  0  0  0  0  0  0  0  0  0  0  0
    3.3660   -1.6830    0.0000 F   0  0  0  0  0  0  0  0  0  0  0  0
    6.3301   -0.8170    0.0000 F   0  0  0  0  0  0  0  0  0  0  0  0
    8.0622    0.1830    0.0000 F   0  0  0  0  0  0  0  0  0  0  0  0
    7.1962    1.6830    0.0000 F   0  0  0  0  0  0  0  0  0  0  0  0
    5.4641    0.6830    0.0000 O   0  0  0  0  0  0  0  0  0  0  0  0
    3.7320   -0.3170    0.0000 C   0  0  0  0  0  0  0  0  0  0  0  0
    4.5981    0.1830    0.0000 C   0  0  0  0  0  0  0  0  0  0  0  0
    2.8660   -0.8170    0.0000 C   0  0  0  0  0  0  0  0  0  0  0  0
    6.3301    0.1830    0.0000 C   0  0  0  0  0  0  0  0  0  0  0  0
    7.1962    0.6830    0.0000 C   0  0  0  0  0  0  0  0  0  0  0  0
  1 12  1  0  0  0  0
  2 12  1  0  0  0  0
  3 13  1  0  0  0  0
  4 13  1  0  0  0  0
  5 14  1  0  0  0  0
  6 14  1  0  0  0  0
  7 14  1  0  0  0  0
  8 15  1  0  0  0  0
  9 16  1  0  0  0  0
 10 16  1  0  0  0  0
 11 13  1  0  0  0  0
 11 15  1  0  0  0  0
 12 13  1  0  0  0  0
 12 14  1  0  0  0  0
 15 16  2  0  0  0  0
M  END
> <PUBCHEM_COMPOUND_CID>
15388

> <PUBCHEM_COMPOUND_CANONICALIZED>
1

> <PUBCHEM_CACTVS_COMPLEXITY>
284

> <PUBCHEM_CACTVS_HBOND_ACCEPTOR>
11

> <PUBCHEM_CACTVS_HBOND_DONOR>
0

> <PUBCHEM_CACTVS_ROTATABLE_BOND>
3

> <PUBCHEM_CACTVS_SUBSKEYS>
AAADcQBgIcAAAAAAAAAAAAAAAAAAAAAAAAAAAAAAAAAAAAAAAAAACwAAAAAACAAAgBAAAAAABACAAAAAAAAACAAAAAAAAAAAAAAAAAAAAAAAAAAAAAAAAAAAAAAAAAAAAAAAAAAAAAAAAAAAAAAAAAAAAA==

> <PUBCHEM_IUPAC_OPENEYE_NAME>
1,1,1,2,2,3,3-heptafluoro-3-(1,2,2-trifluorovinyloxy)propane

> <PUBCHEM_IUPAC_CAS_NAME>
1,1,1,2,2,3,3-heptafluoro-3-(1,2,2-trifluoroethenoxy)propane

> <PUBCHEM_IUPAC_NAME_MARKUP>
1,1,1,2,2,3,3-heptafluoro-3-(1,2,2-trifluoroethenoxy)propane

> <PUBCHEM_IUPAC_NAME>
1,1,1,2,2,3,3-heptafluoro-3-(1,2,2-trifluoroethenoxy)propane

> <PUBCHEM_IUPAC_SYSTEMATIC_NAME>
1,1,1,2,2,3,3-heptakis(fluoranyl)-3-[1,2,2-tris(fluoranyl)ethenoxy]propane

> <PUBCHEM_IUPAC_TRADITIONAL_NAME>
1,1,1,2,2,3,3-heptafluoro-3-(1,2,2-trifluorovinyloxy)propane

> <PUBCHEM_IUPAC_INCHI>
InChI=1S/C5F10O/c6-1(7)2(8)16-5(14,15)3(9,10)4(11,12)13

> <PUBCHEM_IUPAC_INCHIKEY>
KHXKESCWFMPTFT-UHFFFAOYSA-N

> <PUBCHEM_XLOGP3_AA>
3.7

> <PUBCHEM_EXACT_MASS>
265.97894624

> <PUBCHEM_MOLECULAR_FORMULA>
C5F10O

> <PUBCHEM_MOLECULAR_WEIGHT>
266.04

> <PUBCHEM_SMILES>
C(=C(F)F)(OC(C(C(F)(F)F)(F)F)(F)F)F

> <PUBCHEM_OPENEYE_CAN_SMILES>
C(=C(F)F)(OC(C(C(F)(F)F)(F)F)(F)F)F

> <PUBCHEM_OPENEYE_ISO_SMILES>
C(=C(F)F)(OC(C(C(F)(F)F)(F)F)(F)F)F

> <PUBCHEM_CACTVS_TPSA>
9.2

> <PUBCHEM_MONOISOTOPIC_WEIGHT>
265.97894624

> <PUBCHEM_TOTAL_CHARGE>
0

> <PUBCHEM_HEAVY_ATOM_COUNT>
16

> <PUBCHEM_ATOM_DEF_STEREO_COUNT>
0

> <PUBCHEM_ATOM_UDEF_STEREO_COUNT>
0

> <PUBCHEM_BOND_DEF_STEREO_COUNT>
0

> <PUBCHEM_BOND_UDEF_STEREO_COUNT>
0

> <PUBCHEM_ISOTOPIC_ATOM_COUNT>
0

> <PUBCHEM_COMPONENT_COUNT>
1

> <PUBCHEM_CACTVS_TAUTO_COUNT>
-1

> <PUBCHEM_COORDINATE_TYPE>
1
5
255

$$$$
