154734679
  -OEChem-04042512242D

 70  0  0     0  0  0  0  0  0999 V2000
   68.5000    0.0000    0.0000 W   0  0  0  0  0  0  0  0  0  0  0  0
   69.5000    0.0000    0.0000 W   0  0  0  0  0  0  0  0  0  0  0  0
   67.5000    0.0000    0.0000 Ni  0  2  0  0  0  0  0  0  0  0  0  0
   53.5000    0.0000    0.0000 Ti  0  0  0  0  0  0  0  0  0  0  0  0
   66.5000    0.0000    0.0000 Ti  0  0  0  0  0  0  0  0  0  0  0  0
   65.5000    0.0000    0.0000 Ti  0  0  0  0  0  0  0  0  0  0  0  0
   64.5000    0.0000    0.0000 Ti  0  0  0  0  0  0  0  0  0  0  0  0
   63.5000    0.0000    0.0000 Ti  0  0  0  0  0  0  0  0  0  0  0  0
   62.5000    0.0000    0.0000 Ti  0  0  0  0  0  0  0  0  0  0  0  0
   61.5000    0.0000    0.0000 Ti  0  0  0  0  0  0  0  0  0  0  0  0
   57.5000    0.0000    0.0000 Ti  0  0  0  0  0  0  0  0  0  0  0  0
   60.5000    0.0000    0.0000 Ti  0  0  0  0  0  0  0  0  0  0  0  0
   59.5000    0.0000    0.0000 Ti  0  0  0  0  0  0  0  0  0  0  0  0
   56.5000    0.0000    0.0000 Ti  0  0  0  0  0  0  0  0  0  0  0  0
   55.5000    0.0000    0.0000 Ti  0  0  0  0  0  0  0  0  0  0  0  0
   54.5000    0.0000    0.0000 Ti  0  0  0  0  0  0  0  0  0  0  0  0
   52.5000    0.0000    0.0000 Ti  0  0  0  0  0  0  0  0  0  0  0  0
   51.5000    0.0000    0.0000 Ti  0  0  0  0  0  0  0  0  0  0  0  0
   50.5000    0.0000    0.0000 Ti  0  0  0  0  0  0  0  0  0  0  0  0
   49.5000    0.0000    0.0000 Ti  0  0  0  0  0  0  0  0  0  0  0  0
   48.5000    0.0000    0.0000 Ti  0  0  0  0  0  0  0  0  0  0  0  0
   47.5000    0.0000    0.0000 Ti  0  0  0  0  0  0  0  0  0  0  0  0
   58.5000    0.0000    0.0000 Ti  0  0  0  0  0  0  0  0  0  0  0  0
   31.5000    0.0000    0.0000 O   0  6  0  0  0  0  0  0  0  0  0  0
   32.5000    0.0000    0.0000 O   0  6  0  0  0  0  0  0  0  0  0  0
   33.5000    0.0000    0.0000 O   0  6  0  0  0  0  0  0  0  0  0  0
   34.5000    0.0000    0.0000 O   0  6  0  0  0  0  0  0  0  0  0  0
   26.5000    0.0000    0.0000 O   0  6  0  0  0  0  0  0  0  0  0  0
    1.5000    0.0000    0.0000 O   0  6  0  0  0  0  0  0  0  0  0  0
    2.5000    0.0000    0.0000 O   0  6  0  0  0  0  0  0  0  0  0  0
    3.5000    0.0000    0.0000 O   0  6  0  0  0  0  0  0  0  0  0  0
    4.5000    0.0000    0.0000 O   0  6  0  0  0  0  0  0  0  0  0  0
    5.5000    0.0000    0.0000 O   0  6  0  0  0  0  0  0  0  0  0  0
    6.5000    0.0000    0.0000 O   0  6  0  0  0  0  0  0  0  0  0  0
   30.5000    0.0000    0.0000 O   0  6  0  0  0  0  0  0  0  0  0  0
   29.5000    0.0000    0.0000 O   0  6  0  0  0  0  0  0  0  0  0  0
   28.5000    0.0000    0.0000 O   0  6  0  0  0  0  0  0  0  0  0  0
   27.5000    0.0000    0.0000 O   0  6  0  0  0  0  0  0  0  0  0  0
    0.5000    0.0000    0.0000 O   0  6  0  0  0  0  0  0  0  0  0  0
   25.5000    0.0000    0.0000 O   0  6  0  0  0  0  0  0  0  0  0  0
   24.5000    0.0000    0.0000 O   0  6  0  0  0  0  0  0  0  0  0  0
   23.5000    0.0000    0.0000 O   0  6  0  0  0  0  0  0  0  0  0  0
   22.5000    0.0000    0.0000 O   0  6  0  0  0  0  0  0  0  0  0  0
   21.5000    0.0000    0.0000 O   0  6  0  0  0  0  0  0  0  0  0  0
   20.5000    0.0000    0.0000 O   0  6  0  0  0  0  0  0  0  0  0  0
   19.5000    0.0000    0.0000 O   0  6  0  0  0  0  0  0  0  0  0  0
   35.5000    0.0000    0.0000 O   0  6  0  0  0  0  0  0  0  0  0  0
   36.5000    0.0000    0.0000 O   0  6  0  0  0  0  0  0  0  0  0  0
   37.5000    0.0000    0.0000 O   0  6  0  0  0  0  0  0  0  0  0  0
   38.5000    0.0000    0.0000 O   0  6  0  0  0  0  0  0  0  0  0  0
   39.5000    0.0000    0.0000 O   0  6  0  0  0  0  0  0  0  0  0  0
   40.5000    0.0000    0.0000 O   0  6  0  0  0  0  0  0  0  0  0  0
   41.5000    0.0000    0.0000 O   0  6  0  0  0  0  0  0  0  0  0  0
   42.5000    0.0000    0.0000 O   0  6  0  0  0  0  0  0  0  0  0  0
   43.5000    0.0000    0.0000 O   0  6  0  0  0  0  0  0  0  0  0  0
   44.5000    0.0000    0.0000 O   0  6  0  0  0  0  0  0  0  0  0  0
   45.5000    0.0000    0.0000 O   0  6  0  0  0  0  0  0  0  0  0  0
   46.5000    0.0000    0.0000 O   0  6  0  0  0  0  0  0  0  0  0  0
    7.5000    0.0000    0.0000 O   0  6  0  0  0  0  0  0  0  0  0  0
    9.5000    0.0000    0.0000 O   0  6  0  0  0  0  0  0  0  0  0  0
   17.5000    0.0000    0.0000 O   0  6  0  0  0  0  0  0  0  0  0  0
   16.5000    0.0000    0.0000 O   0  6  0  0  0  0  0  0  0  0  0  0
   15.5000    0.0000    0.0000 O   0  6  0  0  0  0  0  0  0  0  0  0
   14.5000    0.0000    0.0000 O   0  6  0  0  0  0  0  0  0  0  0  0
   13.5000    0.0000    0.0000 O   0  6  0  0  0  0  0  0  0  0  0  0
   12.5000    0.0000    0.0000 O   0  6  0  0  0  0  0  0  0  0  0  0
   11.5000    0.0000    0.0000 O   0  6  0  0  0  0  0  0  0  0  0  0
   10.5000    0.0000    0.0000 O   0  6  0  0  0  0  0  0  0  0  0  0
   18.5000    0.0000    0.0000 O   0  6  0  0  0  0  0  0  0  0  0  0
    8.5000    0.0000    0.0000 O   0  6  0  0  0  0  0  0  0  0  0  0
M  CHG  8   3   2   4   4   5   4   6   4   7   4   8   4   9   4  10   4
M  CHG  8  11   4  12   4  13   4  14   4  15   4  16   4  17   4  18   4
M  CHG  8  19   4  20   4  21   4  22   4  23   4  24  -2  25  -2  26  -2
M  CHG  8  27  -2  28  -2  29  -2  30  -2  31  -2  32  -2  33  -2  34  -2
M  CHG  8  35  -2  36  -2  37  -2  38  -2  39  -2  40  -2  41  -2  42  -2
M  CHG  8  43  -2  44  -2  45  -2  46  -2  47  -2  48  -2  49  -2  50  -2
M  CHG  8  51  -2  52  -2  53  -2  54  -2  55  -2  56  -2  57  -2  58  -2
M  CHG  8  59  -2  60  -2  61  -2  62  -2  63  -2  64  -2  65  -2  66  -2
M  CHG  4  67  -2  68  -2  69  -2  70  -2
M  END
> <PUBCHEM_COMPOUND_CID>
154734679

> <PUBCHEM_COMPOUND_CANONICALIZED>
1

> <PUBCHEM_CACTVS_COMPLEXITY>
0

> <PUBCHEM_CACTVS_HBOND_ACCEPTOR>
47

> <PUBCHEM_CACTVS_HBOND_DONOR>
0

> <PUBCHEM_CACTVS_ROTATABLE_BOND>
0

> <PUBCHEM_CACTVS_SUBSKEYS>
AAADcQAAPgAAAAIIAAAAQAAAAAAAAAAAAAAAAAAAAAAAAAAAAAAAAAAAAAAAAAAAAAAAAAAAAAAAAAAAAAAAAAAAAAAAAAAAAAAAAAAAAAAAAAAAAAAAAAAAAAAAAAAAAAAAAAAAAAAAAAAAAAAAAAAAAA==

> <PUBCHEM_IUPAC_OPENEYE_NAME>
nickelous;oxygen(2-);titanium(4+);tungsten

> <PUBCHEM_IUPAC_CAS_NAME>
nickel(2+);oxygen(2-);titanium(4+);tungsten

> <PUBCHEM_IUPAC_NAME_MARKUP>
nickel(2+);oxygen(2-);titanium(4+);tungsten

> <PUBCHEM_IUPAC_NAME>
nickel(2+);oxygen(2-);titanium(4+);tungsten

> <PUBCHEM_IUPAC_SYSTEMATIC_NAME>
nickel(2+);oxygen(2-);titanium(4+);tungsten

> <PUBCHEM_IUPAC_TRADITIONAL_NAME>
nickelous;oxygen(2-);titanium(4+);tungsten

> <PUBCHEM_IUPAC_INCHI>
InChI=1S/Ni.47O.20Ti.2W/q+2;47*-2;20*+4;;

> <PUBCHEM_IUPAC_INCHIKEY>
ALQYUQWIMOGXLP-UHFFFAOYSA-N

> <PUBCHEM_EXACT_MASS>
2138.56571

> <PUBCHEM_MOLECULAR_FORMULA>
NiO47Ti20W2-12

> <PUBCHEM_MOLECULAR_WEIGHT>
2135.7

> <PUBCHEM_SMILES>
[O-2].[O-2].[O-2].[O-2].[O-2].[O-2].[O-2].[O-2].[O-2].[O-2].[O-2].[O-2].[O-2].[O-2].[O-2].[O-2].[O-2].[O-2].[O-2].[O-2].[O-2].[O-2].[O-2].[O-2].[O-2].[O-2].[O-2].[O-2].[O-2].[O-2].[O-2].[O-2].[O-2].[O-2].[O-2].[O-2].[O-2].[O-2].[O-2].[O-2].[O-2].[O-2].[O-2].[O-2].[O-2].[O-2].[O-2].[Ti+4].[Ti+4].[Ti+4].[Ti+4].[Ti+4].[Ti+4].[Ti+4].[Ti+4].[Ti+4].[Ti+4].[Ti+4].[Ti+4].[Ti+4].[Ti+4].[Ti+4].[Ti+4].[Ti+4].[Ti+4].[Ti+4].[Ti+4].[Ni+2].[W].[W]

> <PUBCHEM_OPENEYE_CAN_SMILES>
[O-2].[O-2].[O-2].[O-2].[O-2].[O-2].[O-2].[O-2].[O-2].[O-2].[O-2].[O-2].[O-2].[O-2].[O-2].[O-2].[O-2].[O-2].[O-2].[O-2].[O-2].[O-2].[O-2].[O-2].[O-2].[O-2].[O-2].[O-2].[O-2].[O-2].[O-2].[O-2].[O-2].[O-2].[O-2].[O-2].[O-2].[O-2].[O-2].[O-2].[O-2].[O-2].[O-2].[O-2].[O-2].[O-2].[O-2].[Ti+4].[Ti+4].[Ti+4].[Ti+4].[Ti+4].[Ti+4].[Ti+4].[Ti+4].[Ti+4].[Ti+4].[Ti+4].[Ti+4].[Ti+4].[Ti+4].[Ti+4].[Ti+4].[Ti+4].[Ti+4].[Ti+4].[Ti+4].[Ni+2].[W].[W]

> <PUBCHEM_OPENEYE_ISO_SMILES>
[O-2].[O-2].[O-2].[O-2].[O-2].[O-2].[O-2].[O-2].[O-2].[O-2].[O-2].[O-2].[O-2].[O-2].[O-2].[O-2].[O-2].[O-2].[O-2].[O-2].[O-2].[O-2].[O-2].[O-2].[O-2].[O-2].[O-2].[O-2].[O-2].[O-2].[O-2].[O-2].[O-2].[O-2].[O-2].[O-2].[O-2].[O-2].[O-2].[O-2].[O-2].[O-2].[O-2].[O-2].[O-2].[O-2].[O-2].[Ti+4].[Ti+4].[Ti+4].[Ti+4].[Ti+4].[Ti+4].[Ti+4].[Ti+4].[Ti+4].[Ti+4].[Ti+4].[Ti+4].[Ti+4].[Ti+4].[Ti+4].[Ti+4].[Ti+4].[Ti+4].[Ti+4].[Ti+4].[Ni+2].[W].[W]

> <PUBCHEM_CACTVS_TPSA>
47

> <PUBCHEM_MONOISOTOPIC_WEIGHT>
2136.55701

> <PUBCHEM_TOTAL_CHARGE>
-12

> <PUBCHEM_HEAVY_ATOM_COUNT>
70

> <PUBCHEM_ATOM_DEF_STEREO_COUNT>
0

> <PUBCHEM_ATOM_UDEF_STEREO_COUNT>
0

> <PUBCHEM_BOND_DEF_STEREO_COUNT>
0

> <PUBCHEM_BOND_UDEF_STEREO_COUNT>
0

> <PUBCHEM_ISOTOPIC_ATOM_COUNT>
0

> <PUBCHEM_COMPONENT_COUNT>
70

> <PUBCHEM_CACTVS_TAUTO_COUNT>
-1

> <PUBCHEM_COORDINATE_TYPE>
1
5
255

$$$$
