154735201
  -OEChem-04042506012D

 26 25  0     1  0  0  0  0  0999 V2000
    2.3584    3.6621    0.0000 F   0  0  0  0  0  0  0  0  0  0  0  0
    1.5493    3.0743    0.0000 F   0  0  0  0  0  0  0  0  0  0  0  0
    3.4461    0.3143    0.0000 F   0  0  0  0  0  0  0  0  0  0  0  0
    4.3972    1.0052    0.0000 F   0  0  0  0  0  0  0  0  0  0  0  0
    4.6330    4.5521    0.0000 F   0  0  0  0  0  0  0  0  0  0  0  0
    4.4239    2.5631    0.0000 F   0  0  0  0  0  0  0  0  0  0  0  0
    0.7702    0.0000    0.0000 F   0  0  0  0  0  0  0  0  0  0  0  0
    0.0000    1.1861    0.0000 F   0  0  0  0  0  0  0  0  0  0  0  0
    1.9563    0.7702    0.0000 F   0  0  0  0  0  0  0  0  0  0  0  0
    3.7552    2.2653    0.0000 O   0  0  0  0  0  0  0  0  0  0  0  0
    2.4461    1.3143    0.0000 O   0  0  0  0  0  0  0  0  0  0  0  0
    3.5339    3.6621    0.0000 O   0  0  0  0  0  0  0  0  0  0  0  0
    1.1861    1.9563    0.0000 O   0  0  0  0  0  0  0  0  0  0  0  0
    6.1108    4.2621    0.0000 O   0  5  0  0  0  0  0  0  0  0  0  0
    5.9297    2.5395    0.0000 O   0  0  0  0  0  0  0  0  0  0  0  0
    3.0554    7.0890    0.0000 N   0  3  0  0  0  0  0  0  0  0  0  0
    2.9461    2.8531    0.0000 C   0  0  3  0  0  0  0  0  0  0  0  0
    2.1371    2.2653    0.0000 C   0  0  3  0  0  0  0  0  0  0  0  0
    3.4461    1.3143    0.0000 C   0  0  0  0  0  0  0  0  0  0  0  0
    4.5284    3.5576    0.0000 C   0  0  0  0  0  0  0  0  0  0  0  0
    0.9781    0.9781    0.0000 C   0  0  0  0  0  0  0  0  0  0  0  0
    5.5230    3.4531    0.0000 C   0  0  0  0  0  0  0  0  0  0  0  0
    3.5923    7.3990    0.0000 H   0  0  0  0  0  0  0  0  0  0  0  0
    2.5184    6.7790    0.0000 H   0  0  0  0  0  0  0  0  0  0  0  0
    2.7454    7.6260    0.0000 H   0  0  0  0  0  0  0  0  0  0  0  0
    3.3654    6.5521    0.0000 H   0  0  0  0  0  0  0  0  0  0  0  0
  1 17  1  0  0  0  0
  2 18  1  0  0  0  0
  3 19  1  0  0  0  0
  4 19  1  0  0  0  0
  5 20  1  0  0  0  0
  6 20  1  0  0  0  0
  7 21  1  0  0  0  0
  8 21  1  0  0  0  0
  9 21  1  0  0  0  0
 10 17  1  0  0  0  0
 10 19  1  0  0  0  0
 11 18  1  0  0  0  0
 11 19  1  0  0  0  0
 12 17  1  0  0  0  0
 12 20  1  0  0  0  0
 13 18  1  0  0  0  0
 13 21  1  0  0  0  0
 14 22  1  0  0  0  0
 15 22  2  0  0  0  0
 16 23  1  0  0  0  0
 16 24  1  0  0  0  0
 16 25  1  0  0  0  0
 16 26  1  0  0  0  0
 17 18  1  0  0  0  0
 20 22  1  0  0  0  0
M  CHG  2  14  -1  16   1
M  END
> <PUBCHEM_COMPOUND_CID>
154735201

> <PUBCHEM_COMPOUND_CANONICALIZED>
1

> <PUBCHEM_CACTVS_COMPLEXITY>
431

> <PUBCHEM_CACTVS_HBOND_ACCEPTOR>
15

> <PUBCHEM_CACTVS_HBOND_DONOR>
1

> <PUBCHEM_CACTVS_ROTATABLE_BOND>
3

> <PUBCHEM_CACTVS_SUBSKEYS>
AAADcYBiOcAAAAAAAAAAAAAAAAAAASAAAAAAAAAAAAAAAAAAAAAACwAQAAAAAAAAgBAACAAABAAIAACQCAIAAAAAAAAAAABAAAARAAAAAAQiAAAAAAAGAAAAAAAAAAAAAAAAAAAAAAAAAAAAAAAAAAAAAA==

> <PUBCHEM_IUPAC_OPENEYE_NAME>
ammonium;2,2-difluoro-2-[[2,2,4,5-tetrafluoro-5-(trifluoromethoxy)-1,3-dioxolan-4-yl]oxy]acetate

> <PUBCHEM_IUPAC_CAS_NAME>
ammonium;2,2-difluoro-2-[[2,2,4,5-tetrafluoro-5-(trifluoromethoxy)-1,3-dioxolan-4-yl]oxy]acetate

> <PUBCHEM_IUPAC_NAME_MARKUP>
azanium;2,2-difluoro-2-[[2,2,4,5-tetrafluoro-5-(trifluoromethoxy)-1,3-dioxolan-4-yl]oxy]acetate

> <PUBCHEM_IUPAC_NAME>
azanium;2,2-difluoro-2-[[2,2,4,5-tetrafluoro-5-(trifluoromethoxy)-1,3-dioxolan-4-yl]oxy]acetate

> <PUBCHEM_IUPAC_SYSTEMATIC_NAME>
azanium;2,2-bis(fluoranyl)-2-[[2,2,4,5-tetrakis(fluoranyl)-5-(trifluoromethyloxy)-1,3-dioxolan-4-yl]oxy]ethanoate

> <PUBCHEM_IUPAC_TRADITIONAL_NAME>
ammonium;2,2-difluoro-2-[[2,2,4,5-tetrafluoro-5-(trifluoromethoxy)-1,3-dioxolan-4-yl]oxy]acetate

> <PUBCHEM_IUPAC_INCHI>
InChI=1S/C6HF9O6.H3N/c7-2(8,1(16)17)18-3(9)4(10,19-5(11,12)13)21-6(14,15)20-3;/h(H,16,17);1H3

> <PUBCHEM_IUPAC_INCHIKEY>
JVXDZDPWHUBMPI-UHFFFAOYSA-N

> <PUBCHEM_EXACT_MASS>
356.98949031

> <PUBCHEM_MOLECULAR_FORMULA>
C6H4F9NO6

> <PUBCHEM_MOLECULAR_WEIGHT>
357.08

> <PUBCHEM_SMILES>
C(=O)(C(OC1(C(OC(O1)(F)F)(OC(F)(F)F)F)F)(F)F)[O-].[NH4+]

> <PUBCHEM_OPENEYE_CAN_SMILES>
C(=O)(C(OC1(C(OC(O1)(F)F)(OC(F)(F)F)F)F)(F)F)[O-].[NH4+]

> <PUBCHEM_OPENEYE_ISO_SMILES>
C(=O)(C(OC1(C(OC(O1)(F)F)(OC(F)(F)F)F)F)(F)F)[O-].[NH4+]

> <PUBCHEM_CACTVS_TPSA>
78.1

> <PUBCHEM_MONOISOTOPIC_WEIGHT>
356.98949031

> <PUBCHEM_TOTAL_CHARGE>
0

> <PUBCHEM_HEAVY_ATOM_COUNT>
22

> <PUBCHEM_ATOM_DEF_STEREO_COUNT>
0

> <PUBCHEM_ATOM_UDEF_STEREO_COUNT>
2

> <PUBCHEM_BOND_DEF_STEREO_COUNT>
0

> <PUBCHEM_BOND_UDEF_STEREO_COUNT>
0

> <PUBCHEM_ISOTOPIC_ATOM_COUNT>
0

> <PUBCHEM_COMPONENT_COUNT>
2

> <PUBCHEM_CACTVS_TAUTO_COUNT>
-1

> <PUBCHEM_COORDINATE_TYPE>
1
5
255

> <PUBCHEM_BONDANNOTATIONS>
17  1  3
18  2  3

$$$$
