15660
  -OEChem-04042505472D

 41 42  0     0  0  0  0  0  0999 V2000
    2.8660   -3.1550    0.0000 N   0  0  0  0  0  0  0  0  0  0  0  0
    6.3301    2.8450    0.0000 N   0  0  0  0  0  0  0  0  0  0  0  0
    2.8660   -0.1550    0.0000 C   0  0  0  0  0  0  0  0  0  0  0  0
    3.7320    1.3450    0.0000 C   0  0  0  0  0  0  0  0  0  0  0  0
    2.8660    0.8450    0.0000 C   0  0  0  0  0  0  0  0  0  0  0  0
    3.7320   -0.6550    0.0000 C   0  0  0  0  0  0  0  0  0  0  0  0
    2.0000   -0.6550    0.0000 C   0  0  0  0  0  0  0  0  0  0  0  0
    3.7320    2.3450    0.0000 C   0  0  0  0  0  0  0  0  0  0  0  0
    4.5981    0.8450    0.0000 C   0  0  0  0  0  0  0  0  0  0  0  0
    3.7320   -1.6550    0.0000 C   0  0  0  0  0  0  0  0  0  0  0  0
    2.0000   -1.6550    0.0000 C   0  0  0  0  0  0  0  0  0  0  0  0
    4.5981    2.8450    0.0000 C   0  0  0  0  0  0  0  0  0  0  0  0
    5.4641    1.3450    0.0000 C   0  0  0  0  0  0  0  0  0  0  0  0
    2.8660   -2.1550    0.0000 C   0  0  0  0  0  0  0  0  0  0  0  0
    5.4641    2.3450    0.0000 C   0  0  0  0  0  0  0  0  0  0  0  0
    3.4030    0.1550    0.0000 H   0  0  0  0  0  0  0  0  0  0  0  0
    3.7320    0.7250    0.0000 H   0  0  0  0  0  0  0  0  0  0  0  0
    2.6540    1.4276    0.0000 H   0  0  0  0  0  0  0  0  0  0  0  0
    2.2554    0.7373    0.0000 H   0  0  0  0  0  0  0  0  0  0  0  0
    4.3426   -0.7627    0.0000 H   0  0  0  0  0  0  0  0  0  0  0  0
    3.9441   -0.0724    0.0000 H   0  0  0  0  0  0  0  0  0  0  0  0
    1.7880   -0.0724    0.0000 H   0  0  0  0  0  0  0  0  0  0  0  0
    1.3894   -0.7627    0.0000 H   0  0  0  0  0  0  0  0  0  0  0  0
    3.5200    2.9276    0.0000 H   0  0  0  0  0  0  0  0  0  0  0  0
    3.1215    2.2373    0.0000 H   0  0  0  0  0  0  0  0  0  0  0  0
    4.1996    0.3701    0.0000 H   0  0  0  0  0  0  0  0  0  0  0  0
    4.9966    0.3701    0.0000 H   0  0  0  0  0  0  0  0  0  0  0  0
    3.9441   -2.2376    0.0000 H   0  0  0  0  0  0  0  0  0  0  0  0
    4.3426   -1.5473    0.0000 H   0  0  0  0  0  0  0  0  0  0  0  0
    1.3894   -1.5473    0.0000 H   0  0  0  0  0  0  0  0  0  0  0  0
    1.7880   -2.2376    0.0000 H   0  0  0  0  0  0  0  0  0  0  0  0
    4.9966    3.3200    0.0000 H   0  0  0  0  0  0  0  0  0  0  0  0
    4.1996    3.3200    0.0000 H   0  0  0  0  0  0  0  0  0  0  0  0
    5.6762    0.7624    0.0000 H   0  0  0  0  0  0  0  0  0  0  0  0
    6.0747    1.4527    0.0000 H   0  0  0  0  0  0  0  0  0  0  0  0
    3.4030   -2.4650    0.0000 H   0  0  0  0  0  0  0  0  0  0  0  0
    5.4641    2.9650    0.0000 H   0  0  0  0  0  0  0  0  0  0  0  0
    2.3291   -3.4650    0.0000 H   0  0  0  0  0  0  0  0  0  0  0  0
    3.4030   -3.4650    0.0000 H   0  0  0  0  0  0  0  0  0  0  0  0
    6.3301    3.4650    0.0000 H   0  0  0  0  0  0  0  0  0  0  0  0
    6.8671    2.5350    0.0000 H   0  0  0  0  0  0  0  0  0  0  0  0
  1 14  1  0  0  0  0
  1 38  1  0  0  0  0
  1 39  1  0  0  0  0
  2 15  1  0  0  0  0
  2 40  1  0  0  0  0
  2 41  1  0  0  0  0
  3  5  1  0  0  0  0
  3  6  1  0  0  0  0
  3  7  1  0  0  0  0
  3 16  1  0  0  0  0
  4  5  1  0  0  0  0
  4  8  1  0  0  0  0
  4  9  1  0  0  0  0
  4 17  1  0  0  0  0
  5 18  1  0  0  0  0
  5 19  1  0  0  0  0
  6 10  1  0  0  0  0
  6 20  1  0  0  0  0
  6 21  1  0  0  0  0
  7 11  1  0  0  0  0
  7 22  1  0  0  0  0
  7 23  1  0  0  0  0
  8 12  1  0  0  0  0
  8 24  1  0  0  0  0
  8 25  1  0  0  0  0
  9 13  1  0  0  0  0
  9 26  1  0  0  0  0
  9 27  1  0  0  0  0
 10 14  1  0  0  0  0
 10 28  1  0  0  0  0
 10 29  1  0  0  0  0
 11 14  1  0  0  0  0
 11 30  1  0  0  0  0
 11 31  1  0  0  0  0
 12 15  1  0  0  0  0
 12 32  1  0  0  0  0
 12 33  1  0  0  0  0
 13 15  1  0  0  0  0
 13 34  1  0  0  0  0
 13 35  1  0  0  0  0
 14 36  1  0  0  0  0
 15 37  1  0  0  0  0
M  END
> <PUBCHEM_COMPOUND_CID>
15660

> <PUBCHEM_COMPOUND_CANONICALIZED>
1

> <PUBCHEM_CACTVS_COMPLEXITY>
157

> <PUBCHEM_CACTVS_HBOND_ACCEPTOR>
2

> <PUBCHEM_CACTVS_HBOND_DONOR>
2

> <PUBCHEM_CACTVS_ROTATABLE_BOND>
2

> <PUBCHEM_CACTVS_SUBSKEYS>
AAADceBzAAAAAAAAAAAAAAAAAAAAAAAAAAAwYAAAAAAAAAAAAAAAHAAQAAAADSjBAAQAAABAAAAAAAAAAAAAAAAAAAAAAIAAAAAAAAIAgAAAAAAAEAAAAAEQgMAOAAAAAAAAAAAQAAAAAAAAAAAAAAAAAA==

> <PUBCHEM_IUPAC_OPENEYE_NAME>
4-[(4-aminocyclohexyl)methyl]cyclohexanamine

> <PUBCHEM_IUPAC_CAS_NAME>
4-[(4-aminocyclohexyl)methyl]-1-cyclohexanamine

> <PUBCHEM_IUPAC_NAME_MARKUP>
4-[(4-aminocyclohexyl)methyl]cyclohexan-1-amine

> <PUBCHEM_IUPAC_NAME>
4-[(4-aminocyclohexyl)methyl]cyclohexan-1-amine

> <PUBCHEM_IUPAC_SYSTEMATIC_NAME>
4-[(4-azanylcyclohexyl)methyl]cyclohexan-1-amine

> <PUBCHEM_IUPAC_TRADITIONAL_NAME>
[4-[(4-aminocyclohexyl)methyl]cyclohexyl]amine

> <PUBCHEM_IUPAC_INCHI>
InChI=1S/C13H26N2/c14-12-5-1-10(2-6-12)9-11-3-7-13(15)8-4-11/h10-13H,1-9,14-15H2

> <PUBCHEM_IUPAC_INCHIKEY>
DZIHTWJGPDVSGE-UHFFFAOYSA-N

> <PUBCHEM_XLOGP3_AA>
1.9

> <PUBCHEM_EXACT_MASS>
210.209598838

> <PUBCHEM_MOLECULAR_FORMULA>
C13H26N2

> <PUBCHEM_MOLECULAR_WEIGHT>
210.36

> <PUBCHEM_SMILES>
C1CC(CCC1CC2CCC(CC2)N)N

> <PUBCHEM_OPENEYE_CAN_SMILES>
C1CC(CCC1CC2CCC(CC2)N)N

> <PUBCHEM_OPENEYE_ISO_SMILES>
C1CC(CCC1CC2CCC(CC2)N)N

> <PUBCHEM_CACTVS_TPSA>
52

> <PUBCHEM_MONOISOTOPIC_WEIGHT>
210.209598838

> <PUBCHEM_TOTAL_CHARGE>
0

> <PUBCHEM_HEAVY_ATOM_COUNT>
15

> <PUBCHEM_ATOM_DEF_STEREO_COUNT>
0

> <PUBCHEM_ATOM_UDEF_STEREO_COUNT>
0

> <PUBCHEM_BOND_DEF_STEREO_COUNT>
0

> <PUBCHEM_BOND_UDEF_STEREO_COUNT>
0

> <PUBCHEM_ISOTOPIC_ATOM_COUNT>
0

> <PUBCHEM_COMPONENT_COUNT>
1

> <PUBCHEM_CACTVS_TAUTO_COUNT>
-1

> <PUBCHEM_COORDINATE_TYPE>
1
5
255

$$$$
