157882
  -OEChem-04042512432D

 52 51  0     0  0  0  0  0  0999 V2000
    3.7320    0.0000    0.0000 Si  0  0  0  0  0  0  0  0  0  0  0  0
   10.6603   -0.0000    0.0000 Si  0  0  0  0  0  0  0  0  0  0  0  0
    2.8660   -0.5000    0.0000 O   0  0  0  0  0  0  0  0  0  0  0  0
    3.2320    0.8660    0.0000 O   0  0  0  0  0  0  0  0  0  0  0  0
    4.2320   -0.8660    0.0000 O   0  0  0  0  0  0  0  0  0  0  0  0
   11.5263   -0.5000    0.0000 O   0  0  0  0  0  0  0  0  0  0  0  0
   11.1603    0.8660    0.0000 O   0  0  0  0  0  0  0  0  0  0  0  0
   10.1603   -0.8660    0.0000 O   0  0  0  0  0  0  0  0  0  0  0  0
    7.1962    0.0000    0.0000 N   0  0  0  0  0  0  0  0  0  0  0  0
    5.4641    0.0000    0.0000 C   0  0  0  0  0  0  0  0  0  0  0  0
    8.9282   -0.0000    0.0000 C   0  0  0  0  0  0  0  0  0  0  0  0
    6.3301    0.5000    0.0000 C   0  0  0  0  0  0  0  0  0  0  0  0
    8.0622    0.5000    0.0000 C   0  0  0  0  0  0  0  0  0  0  0  0
    4.5981    0.5000    0.0000 C   0  0  0  0  0  0  0  0  0  0  0  0
    9.7942    0.5000    0.0000 C   0  0  0  0  0  0  0  0  0  0  0  0
    2.0000    0.0000    0.0000 C   0  0  0  0  0  0  0  0  0  0  0  0
    3.7320    1.7320    0.0000 C   0  0  0  0  0  0  0  0  0  0  0  0
    3.7320   -1.7320    0.0000 C   0  0  0  0  0  0  0  0  0  0  0  0
   12.3923   -0.0000    0.0000 C   0  0  0  0  0  0  0  0  0  0  0  0
   10.6603    1.7320    0.0000 C   0  0  0  0  0  0  0  0  0  0  0  0
   10.6603   -1.7320    0.0000 C   0  0  0  0  0  0  0  0  0  0  0  0
    5.0656   -0.4749    0.0000 H   0  0  0  0  0  0  0  0  0  0  0  0
    5.8626   -0.4749    0.0000 H   0  0  0  0  0  0  0  0  0  0  0  0
    8.5297   -0.4749    0.0000 H   0  0  0  0  0  0  0  0  0  0  0  0
    9.3267   -0.4749    0.0000 H   0  0  0  0  0  0  0  0  0  0  0  0
    6.7287    0.9749    0.0000 H   0  0  0  0  0  0  0  0  0  0  0  0
    5.9316    0.9749    0.0000 H   0  0  0  0  0  0  0  0  0  0  0  0
    8.4607    0.9749    0.0000 H   0  0  0  0  0  0  0  0  0  0  0  0
    7.6636    0.9749    0.0000 H   0  0  0  0  0  0  0  0  0  0  0  0
    4.9966    0.9749    0.0000 H   0  0  0  0  0  0  0  0  0  0  0  0
    4.1996    0.9749    0.0000 H   0  0  0  0  0  0  0  0  0  0  0  0
   10.1928    0.9749    0.0000 H   0  0  0  0  0  0  0  0  0  0  0  0
    9.3957    0.9749    0.0000 H   0  0  0  0  0  0  0  0  0  0  0  0
    7.1962   -0.6200    0.0000 H   0  0  0  0  0  0  0  0  0  0  0  0
    2.3100    0.5369    0.0000 H   0  0  0  0  0  0  0  0  0  0  0  0
    1.4631    0.3100    0.0000 H   0  0  0  0  0  0  0  0  0  0  0  0
    1.6900   -0.5369    0.0000 H   0  0  0  0  0  0  0  0  0  0  0  0
    4.2690    1.4220    0.0000 H   0  0  0  0  0  0  0  0  0  0  0  0
    4.0420    2.2690    0.0000 H   0  0  0  0  0  0  0  0  0  0  0  0
    3.1951    2.0420    0.0000 H   0  0  0  0  0  0  0  0  0  0  0  0
    3.1951   -1.4220    0.0000 H   0  0  0  0  0  0  0  0  0  0  0  0
    3.4220   -2.2690    0.0000 H   0  0  0  0  0  0  0  0  0  0  0  0
    4.2690   -2.0420    0.0000 H   0  0  0  0  0  0  0  0  0  0  0  0
   12.7023   -0.5369    0.0000 H   0  0  0  0  0  0  0  0  0  0  0  0
   12.9292    0.3100    0.0000 H   0  0  0  0  0  0  0  0  0  0  0  0
   12.0823    0.5369    0.0000 H   0  0  0  0  0  0  0  0  0  0  0  0
   11.1972    2.0420    0.0000 H   0  0  0  0  0  0  0  0  0  0  0  0
   10.3503    2.2690    0.0000 H   0  0  0  0  0  0  0  0  0  0  0  0
   10.1233    1.4220    0.0000 H   0  0  0  0  0  0  0  0  0  0  0  0
   10.1233   -2.0420    0.0000 H   0  0  0  0  0  0  0  0  0  0  0  0
   10.9703   -2.2690    0.0000 H   0  0  0  0  0  0  0  0  0  0  0  0
   11.1972   -1.4220    0.0000 H   0  0  0  0  0  0  0  0  0  0  0  0
  1  3  1  0  0  0  0
  1  4  1  0  0  0  0
  1  5  1  0  0  0  0
  1 14  1  0  0  0  0
  2  6  1  0  0  0  0
  2  7  1  0  0  0  0
  2  8  1  0  0  0  0
  2 15  1  0  0  0  0
  3 16  1  0  0  0  0
  4 17  1  0  0  0  0
  5 18  1  0  0  0  0
  6 19  1  0  0  0  0
  7 20  1  0  0  0  0
  8 21  1  0  0  0  0
  9 12  1  0  0  0  0
  9 13  1  0  0  0  0
  9 34  1  0  0  0  0
 10 12  1  0  0  0  0
 10 14  1  0  0  0  0
 10 22  1  0  0  0  0
 10 23  1  0  0  0  0
 11 13  1  0  0  0  0
 11 15  1  0  0  0  0
 11 24  1  0  0  0  0
 11 25  1  0  0  0  0
 12 26  1  0  0  0  0
 12 27  1  0  0  0  0
 13 28  1  0  0  0  0
 13 29  1  0  0  0  0
 14 30  1  0  0  0  0
 14 31  1  0  0  0  0
 15 32  1  0  0  0  0
 15 33  1  0  0  0  0
 16 35  1  0  0  0  0
 16 36  1  0  0  0  0
 16 37  1  0  0  0  0
 17 38  1  0  0  0  0
 17 39  1  0  0  0  0
 17 40  1  0  0  0  0
 18 41  1  0  0  0  0
 18 42  1  0  0  0  0
 18 43  1  0  0  0  0
 19 44  1  0  0  0  0
 19 45  1  0  0  0  0
 19 46  1  0  0  0  0
 20 47  1  0  0  0  0
 20 48  1  0  0  0  0
 20 49  1  0  0  0  0
 21 50  1  0  0  0  0
 21 51  1  0  0  0  0
 21 52  1  0  0  0  0
M  END
> <PUBCHEM_COMPOUND_CID>
157882

> <PUBCHEM_COMPOUND_CANONICALIZED>
1

> <PUBCHEM_CACTVS_COMPLEXITY>
211

> <PUBCHEM_CACTVS_HBOND_ACCEPTOR>
7

> <PUBCHEM_CACTVS_HBOND_DONOR>
1

> <PUBCHEM_CACTVS_ROTATABLE_BOND>
14

> <PUBCHEM_CACTVS_SUBSKEYS>
AAADceByOAwAAAAAAAAAAAAAAAAAAAAAAAAAAAAAAAAAAAAAAAAAHhAQAEAACADBIAZCAALAAAAAAAAAAAAAAAAAAAAAAIAIAAAAAAAAAAAEAAAAEACAAAAAAAAAAAAAAAAAAAAAAAAAAAAAAAAAAAAAAA==

> <PUBCHEM_IUPAC_OPENEYE_NAME>
3-trimethoxysilyl-N-(3-trimethoxysilylpropyl)propan-1-amine

> <PUBCHEM_IUPAC_CAS_NAME>
3-trimethoxysilyl-N-(3-trimethoxysilylpropyl)-1-propanamine

> <PUBCHEM_IUPAC_NAME_MARKUP>
3-trimethoxysilyl-<I>N</I>-(3-trimethoxysilylpropyl)propan-1-amine

> <PUBCHEM_IUPAC_NAME>
3-trimethoxysilyl-N-(3-trimethoxysilylpropyl)propan-1-amine

> <PUBCHEM_IUPAC_SYSTEMATIC_NAME>
3-trimethoxysilyl-N-(3-trimethoxysilylpropyl)propan-1-amine

> <PUBCHEM_IUPAC_TRADITIONAL_NAME>
bis(3-trimethoxysilylpropyl)amine

> <PUBCHEM_IUPAC_INCHI>
InChI=1S/C12H31NO6Si2/c1-14-20(15-2,16-3)11-7-9-13-10-8-12-21(17-4,18-5)19-6/h13H,7-12H2,1-6H3

> <PUBCHEM_IUPAC_INCHIKEY>
TZZGHGKTHXIOMN-UHFFFAOYSA-N

> <PUBCHEM_EXACT_MASS>
341.16899078

> <PUBCHEM_MOLECULAR_FORMULA>
C12H31NO6Si2

> <PUBCHEM_MOLECULAR_WEIGHT>
341.55

> <PUBCHEM_SMILES>
CO[Si](CCCNCCC[Si](OC)(OC)OC)(OC)OC

> <PUBCHEM_OPENEYE_CAN_SMILES>
CO[Si](CCCNCCC[Si](OC)(OC)OC)(OC)OC

> <PUBCHEM_OPENEYE_ISO_SMILES>
CO[Si](CCCNCCC[Si](OC)(OC)OC)(OC)OC

> <PUBCHEM_CACTVS_TPSA>
67.4

> <PUBCHEM_MONOISOTOPIC_WEIGHT>
341.16899078

> <PUBCHEM_TOTAL_CHARGE>
0

> <PUBCHEM_HEAVY_ATOM_COUNT>
21

> <PUBCHEM_ATOM_DEF_STEREO_COUNT>
0

> <PUBCHEM_ATOM_UDEF_STEREO_COUNT>
0

> <PUBCHEM_BOND_DEF_STEREO_COUNT>
0

> <PUBCHEM_BOND_UDEF_STEREO_COUNT>
0

> <PUBCHEM_ISOTOPIC_ATOM_COUNT>
0

> <PUBCHEM_COMPONENT_COUNT>
1

> <PUBCHEM_CACTVS_TAUTO_COUNT>
-1

> <PUBCHEM_COORDINATE_TYPE>
1
5
255

$$$$
