159347
  -OEChem-04042505462D

 44 19  0     0  0  0  0  0  0999 V2000
    1.7071    5.7044    0.0000 Al  0  1  0  0  0  0  0  0  0  0  0  0
    5.8172    1.3100    0.0000 Al  0  1  0  0  0  0  0  0  0  0  0  0
    5.8172    3.8100    0.0000 Mg  0  2  0  0  0  0  0  0  0  0  0  0
    5.8172    6.3100    0.0000 Mg  0  2  0  0  0  0  0  0  0  0  0  0
    5.8172    8.8100    0.0000 Mg  0  2  0  0  0  0  0  0  0  0  0  0
   10.6231    4.4050    0.0000 Mg  0  2  0  0  0  0  0  0  0  0  0  0
    5.8172   11.3100    0.0000 Mg  0  2  0  0  0  0  0  0  0  0  0  0
   10.6231    6.9050    0.0000 Mg  0  2  0  0  0  0  0  0  0  0  0  0
    0.7071    5.7044    0.0000 O   0  5  0  0  0  0  0  0  0  0  0  0
    1.7071    6.7044    0.0000 O   0  5  0  0  0  0  0  0  0  0  0  0
    0.0000    7.4115    0.0000 O   0  0  0  0  0  0  0  0  0  0  0  0
    5.8172    0.3100    0.0000 O   0  5  0  0  0  0  0  0  0  0  0  0
    4.9512    6.8100    0.0000 O   0  5  0  0  0  0  0  0  0  0  0  0
    2.4142    4.9973    0.0000 O   0  5  0  0  0  0  0  0  0  0  0  0
    6.6832    1.8100    0.0000 O   0  5  0  0  0  0  0  0  0  0  0  0
    4.9512    1.8100    0.0000 O   0  5  0  0  0  0  0  0  0  0  0  0
    6.6832    4.3100    0.0000 O   0  5  0  0  0  0  0  0  0  0  0  0
    4.9512    4.3100    0.0000 O   0  5  0  0  0  0  0  0  0  0  0  0
    6.6832    6.8100    0.0000 O   0  5  0  0  0  0  0  0  0  0  0  0
    4.9512    9.3100    0.0000 O   0  5  0  0  0  0  0  0  0  0  0  0
   11.4891    4.9050    0.0000 O   0  5  0  0  0  0  0  0  0  0  0  0
    6.6832   11.8100    0.0000 O   0  5  0  0  0  0  0  0  0  0  0  0
    4.9512   11.8100    0.0000 O   0  5  0  0  0  0  0  0  0  0  0  0
   11.4891    7.4050    0.0000 O   0  5  0  0  0  0  0  0  0  0  0  0
    9.7571    7.4050    0.0000 O   0  5  0  0  0  0  0  0  0  0  0  0
    9.7571    4.9050    0.0000 O   0  5  0  0  0  0  0  0  0  0  0  0
    6.6832    9.3100    0.0000 O   0  5  0  0  0  0  0  0  0  0  0  0
    0.7071    6.7044    0.0000 C   0  0  0  0  0  0  0  0  0  0  0  0
    5.2802    0.0000    0.0000 H   0  0  0  0  0  0  0  0  0  0  0  0
    4.4142    6.5000    0.0000 H   0  0  0  0  0  0  0  0  0  0  0  0
    2.2538    4.3985    0.0000 H   0  0  0  0  0  0  0  0  0  0  0  0
    7.2201    1.5000    0.0000 H   0  0  0  0  0  0  0  0  0  0  0  0
    4.4142    1.5000    0.0000 H   0  0  0  0  0  0  0  0  0  0  0  0
    7.2201    4.0000    0.0000 H   0  0  0  0  0  0  0  0  0  0  0  0
    4.4142    4.0000    0.0000 H   0  0  0  0  0  0  0  0  0  0  0  0
    7.2201    6.5000    0.0000 H   0  0  0  0  0  0  0  0  0  0  0  0
    4.4142    9.0000    0.0000 H   0  0  0  0  0  0  0  0  0  0  0  0
   12.0261    4.5950    0.0000 H   0  0  0  0  0  0  0  0  0  0  0  0
    7.2201   11.5000    0.0000 H   0  0  0  0  0  0  0  0  0  0  0  0
    4.4142   11.5000    0.0000 H   0  0  0  0  0  0  0  0  0  0  0  0
   12.0261    7.0950    0.0000 H   0  0  0  0  0  0  0  0  0  0  0  0
    9.2201    7.0950    0.0000 H   0  0  0  0  0  0  0  0  0  0  0  0
    9.2201    4.5950    0.0000 H   0  0  0  0  0  0  0  0  0  0  0  0
    7.2201    9.0000    0.0000 H   0  0  0  0  0  0  0  0  0  0  0  0
  9 28  1  0  0  0  0
 10 28  1  0  0  0  0
 11 28  2  0  0  0  0
 12 29  1  0  0  0  0
 13 30  1  0  0  0  0
 14 31  1  0  0  0  0
 15 32  1  0  0  0  0
 16 33  1  0  0  0  0
 17 34  1  0  0  0  0
 18 35  1  0  0  0  0
 19 36  1  0  0  0  0
 20 37  1  0  0  0  0
 21 38  1  0  0  0  0
 22 39  1  0  0  0  0
 23 40  1  0  0  0  0
 24 41  1  0  0  0  0
 25 42  1  0  0  0  0
 26 43  1  0  0  0  0
 27 44  1  0  0  0  0
M  CHG  8   1   3   2   3   3   2   4   2   5   2   6   2   7   2   8   2
M  CHG  8   9  -1  10  -1  12  -1  13  -1  14  -1  15  -1  16  -1  17  -1
M  CHG  8  18  -1  19  -1  20  -1  21  -1  22  -1  23  -1  24  -1  25  -1
M  CHG  2  26  -1  27  -1
M  END
> <PUBCHEM_COMPOUND_CID>
159347

> <PUBCHEM_COMPOUND_CANONICALIZED>
1

> <PUBCHEM_CACTVS_COMPLEXITY>
18.8

> <PUBCHEM_CACTVS_HBOND_ACCEPTOR>
19

> <PUBCHEM_CACTVS_HBOND_DONOR>
16

> <PUBCHEM_CACTVS_ROTATABLE_BOND>
0

> <PUBCHEM_CACTVS_SUBSKEYS>
AAADceAAPgAAADAAAAAAAAAAAAAAAAAAAAAAAAAAAAAAAAAAAAAAAgAACAAAAAAAAAAACAAAAAAIAAAACAAAAAAAAAAAAAAAAAAAAAAAAAAAAAAAAAAAAAAAAAAAAAAAAAAAAAAAAAAAAAAAAAAAAAAAAA==

> <PUBCHEM_IUPAC_OPENEYE_NAME>
dialuminum;hexamagnesium;carbonate;hexadecahydroxide

> <PUBCHEM_IUPAC_CAS_NAME>
dialuminum;hexamagnesium;carbonate;hexadecahydroxide

> <PUBCHEM_IUPAC_NAME_MARKUP>
dialuminum;hexamagnesium;carbonate;hexadecahydroxide

> <PUBCHEM_IUPAC_NAME>
dialuminum;hexamagnesium;carbonate;hexadecahydroxide

> <PUBCHEM_IUPAC_SYSTEMATIC_NAME>
dialuminum;hexamagnesium;carbonate;hexadecahydroxide

> <PUBCHEM_IUPAC_TRADITIONAL_NAME>
dialuminum;hexamagnesium;carbonate;hexadecahydroxide

> <PUBCHEM_IUPAC_INCHI>
InChI=1S/CH2O3.2Al.6Mg.16H2O/c2-1(3)4;;;;;;;;;;;;;;;;;;;;;;;;/h(H2,2,3,4);;;;;;;;;16*1H2/q;2*+3;6*+2;;;;;;;;;;;;;;;;/p-18

> <PUBCHEM_IUPAC_INCHIKEY>
GDVKFRBCXAPAQJ-UHFFFAOYSA-A

> <PUBCHEM_EXACT_MASS>
529.901905

> <PUBCHEM_MOLECULAR_FORMULA>
CH16Al2Mg6O19

> <PUBCHEM_MOLECULAR_WEIGHT>
531.92

> <PUBCHEM_SMILES>
C(=O)([O-])[O-].[OH-].[OH-].[OH-].[OH-].[OH-].[OH-].[OH-].[OH-].[OH-].[OH-].[OH-].[OH-].[OH-].[OH-].[OH-].[OH-].[Mg+2].[Mg+2].[Mg+2].[Mg+2].[Mg+2].[Mg+2].[Al+3].[Al+3]

> <PUBCHEM_OPENEYE_CAN_SMILES>
C(=O)([O-])[O-].[OH-].[OH-].[OH-].[OH-].[OH-].[OH-].[OH-].[OH-].[OH-].[OH-].[OH-].[OH-].[OH-].[OH-].[OH-].[OH-].[Mg+2].[Mg+2].[Mg+2].[Mg+2].[Mg+2].[Mg+2].[Al+3].[Al+3]

> <PUBCHEM_OPENEYE_ISO_SMILES>
C(=O)([O-])[O-].[OH-].[OH-].[OH-].[OH-].[OH-].[OH-].[OH-].[OH-].[OH-].[OH-].[OH-].[OH-].[OH-].[OH-].[OH-].[OH-].[Mg+2].[Mg+2].[Mg+2].[Mg+2].[Mg+2].[Mg+2].[Al+3].[Al+3]

> <PUBCHEM_CACTVS_TPSA>
79.2

> <PUBCHEM_MONOISOTOPIC_WEIGHT>
529.901905

> <PUBCHEM_TOTAL_CHARGE>
0

> <PUBCHEM_HEAVY_ATOM_COUNT>
28

> <PUBCHEM_ATOM_DEF_STEREO_COUNT>
0

> <PUBCHEM_ATOM_UDEF_STEREO_COUNT>
0

> <PUBCHEM_BOND_DEF_STEREO_COUNT>
0

> <PUBCHEM_BOND_UDEF_STEREO_COUNT>
0

> <PUBCHEM_ISOTOPIC_ATOM_COUNT>
0

> <PUBCHEM_COMPONENT_COUNT>
25

> <PUBCHEM_CACTVS_TAUTO_COUNT>
-1

> <PUBCHEM_COORDINATE_TYPE>
1
5
255

$$$$
