160959
  -OEChem-04042505582D

  2  0  0     0  0  0  0  0  0999 V2000
    3.0000    0.0000    0.0000 Mn  0  2  0  0  0  0  0  0  0  0  0  0
    2.0000    0.0000    0.0000 O   0  6  0  0  0  0  0  0  0  0  0  0
M  CHG  2   1   2   2  -2
M  END
> <PUBCHEM_COMPOUND_CID>
160959

> <PUBCHEM_COMPOUND_CANONICALIZED>
1

> <PUBCHEM_CACTVS_COMPLEXITY>
0

> <PUBCHEM_CACTVS_HBOND_ACCEPTOR>
1

> <PUBCHEM_CACTVS_HBOND_DONOR>
0

> <PUBCHEM_CACTVS_ROTATABLE_BOND>
0

> <PUBCHEM_CACTVS_SUBSKEYS>
AAADcQAAIAAAAABAAAAAAAAAAAAAAAAAAAAAAAAAAAAAAAAAAAAAAAAAAAAAAAAAAAAAAAAAAAAAAAAAAAAAAAAAAAAAAAAAAAAAAAAAAAAAAAAAAAAAAAAAAAAAAAAAAAAAAAAAAAAAAAAAAAAAAAAAAA==

> <PUBCHEM_IUPAC_OPENEYE_NAME>
manganous;oxygen(2-)

> <PUBCHEM_IUPAC_CAS_NAME>
manganese(2+);oxygen(2-)

> <PUBCHEM_IUPAC_NAME_MARKUP>
manganese(2+);oxygen(2-)

> <PUBCHEM_IUPAC_NAME>
manganese(2+);oxygen(2-)

> <PUBCHEM_IUPAC_SYSTEMATIC_NAME>
manganese(2+);oxygen(2-)

> <PUBCHEM_IUPAC_TRADITIONAL_NAME>
manganous;oxygen(2-)

> <PUBCHEM_IUPAC_INCHI>
InChI=1S/Mn.O/q+2;-2

> <PUBCHEM_IUPAC_INCHIKEY>
PPNAOCWZXJOHFK-UHFFFAOYSA-N

> <PUBCHEM_EXACT_MASS>
70.932958

> <PUBCHEM_MOLECULAR_FORMULA>
MnO

> <PUBCHEM_MOLECULAR_WEIGHT>
70.937

> <PUBCHEM_SMILES>
[O-2].[Mn+2]

> <PUBCHEM_OPENEYE_CAN_SMILES>
[O-2].[Mn+2]

> <PUBCHEM_OPENEYE_ISO_SMILES>
[O-2].[Mn+2]

> <PUBCHEM_CACTVS_TPSA>
1

> <PUBCHEM_MONOISOTOPIC_WEIGHT>
70.932958

> <PUBCHEM_TOTAL_CHARGE>
0

> <PUBCHEM_HEAVY_ATOM_COUNT>
2

> <PUBCHEM_ATOM_DEF_STEREO_COUNT>
0

> <PUBCHEM_ATOM_UDEF_STEREO_COUNT>
0

> <PUBCHEM_BOND_DEF_STEREO_COUNT>
0

> <PUBCHEM_BOND_UDEF_STEREO_COUNT>
0

> <PUBCHEM_ISOTOPIC_ATOM_COUNT>
0

> <PUBCHEM_COMPONENT_COUNT>
2

> <PUBCHEM_CACTVS_TAUTO_COUNT>
-1

> <PUBCHEM_COORDINATE_TYPE>
1
5
255

$$$$
