16172388
  -OEChem-04042512282D

140152  0     0  0  0  0  0  0999 V2000
    9.8877   -0.4969    0.0000 O   0  0  0  0  0  0  0  0  0  0  0  0
    9.8877    0.4968    0.0000 O   0  0  0  0  0  0  0  0  0  0  0  0
    4.6152   -0.4969    0.0000 O   0  0  0  0  0  0  0  0  0  0  0  0
    4.6152    0.4968    0.0000 O   0  0  0  0  0  0  0  0  0  0  0  0
    9.0152   -4.0971    0.0000 O   0  0  0  0  0  0  0  0  0  0  0  0
    5.4877   -4.0971    0.0000 O   0  0  0  0  0  0  0  0  0  0  0  0
    9.0152    4.0970    0.0000 O   0  0  0  0  0  0  0  0  0  0  0  0
    5.4877    4.0970    0.0000 O   0  0  0  0  0  0  0  0  0  0  0  0
    7.2515   -4.1245    0.0000 N   0  0  0  0  0  0  0  0  0  0  0  0
    7.2515    4.1244    0.0000 N   0  0  0  0  0  0  0  0  0  0  0  0
    7.2515   -1.0000    0.0000 C   0  0  0  0  0  0  0  0  0  0  0  0
    7.2515    1.0000    0.0000 C   0  0  0  0  0  0  0  0  0  0  0  0
    8.1175   -0.5000    0.0000 C   0  0  0  0  0  0  0  0  0  0  0  0
    6.3854   -0.5000    0.0000 C   0  0  0  0  0  0  0  0  0  0  0  0
    8.1175    0.5000    0.0000 C   0  0  0  0  0  0  0  0  0  0  0  0
    6.3854    0.5000    0.0000 C   0  0  0  0  0  0  0  0  0  0  0  0
    7.2675   -2.0415    0.0000 C   0  0  0  0  0  0  0  0  0  0  0  0
    7.2675    2.0415    0.0000 C   0  0  0  0  0  0  0  0  0  0  0  0
    8.1334   -2.5693    0.0000 C   0  0  0  0  0  0  0  0  0  0  0  0
    6.3695   -2.5693    0.0000 C   0  0  0  0  0  0  0  0  0  0  0  0
    8.1334    2.5692    0.0000 C   0  0  0  0  0  0  0  0  0  0  0  0
    6.3695    2.5692    0.0000 C   0  0  0  0  0  0  0  0  0  0  0  0
    9.0275   -1.0069    0.0000 C   0  0  0  0  0  0  0  0  0  0  0  0
    9.0275    1.0068    0.0000 C   0  0  0  0  0  0  0  0  0  0  0  0
    5.4754   -1.0069    0.0000 C   0  0  0  0  0  0  0  0  0  0  0  0
    5.4754    1.0068    0.0000 C   0  0  0  0  0  0  0  0  0  0  0  0
    9.0355   -2.0485    0.0000 C   0  0  0  0  0  0  0  0  0  0  0  0
    9.0355    2.0484    0.0000 C   0  0  0  0  0  0  0  0  0  0  0  0
    5.4674   -2.0485    0.0000 C   0  0  0  0  0  0  0  0  0  0  0  0
    5.4674    2.0484    0.0000 C   0  0  0  0  0  0  0  0  0  0  0  0
    8.1454   -3.6038    0.0000 C   0  0  0  0  0  0  0  0  0  0  0  0
    6.3575   -3.6038    0.0000 C   0  0  0  0  0  0  0  0  0  0  0  0
    8.1454    3.6037    0.0000 C   0  0  0  0  0  0  0  0  0  0  0  0
    6.3575    3.6037    0.0000 C   0  0  0  0  0  0  0  0  0  0  0  0
    7.5936   -5.0641    0.0000 C   0  0  0  0  0  0  0  0  0  0  0  0
    7.5935    5.0641    0.0000 C   0  0  0  0  0  0  0  0  0  0  0  0
    8.5783   -5.2378    0.0000 C   0  0  0  0  0  0  0  0  0  0  0  0
    6.9507    5.8302    0.0000 C   0  0  0  0  0  0  0  0  0  0  0  0
    6.9507   -5.8302    0.0000 C   0  0  0  0  0  0  0  0  0  0  0  0
    8.5783    5.2378    0.0000 C   0  0  0  0  0  0  0  0  0  0  0  0
    9.5783   -5.2378    0.0000 C   0  0  0  0  0  0  0  0  0  0  0  0
    5.9659    5.6565    0.0000 C   0  0  0  0  0  0  0  0  0  0  0  0
    5.9659   -5.6565    0.0000 C   0  0  0  0  0  0  0  0  0  0  0  0
    9.5783    5.2378    0.0000 C   0  0  0  0  0  0  0  0  0  0  0  0
    8.9203   -6.1775    0.0000 C   0  0  0  0  0  0  0  0  0  0  0  0
    7.2927    6.7699    0.0000 C   0  0  0  0  0  0  0  0  0  0  0  0
    7.2928   -6.7699    0.0000 C   0  0  0  0  0  0  0  0  0  0  0  0
    8.9203    6.1775    0.0000 C   0  0  0  0  0  0  0  0  0  0  0  0
   10.7594   -0.9868    0.0000 C   0  0  0  0  0  0  0  0  0  0  0  0
   10.7594    0.9868    0.0000 C   0  0  0  0  0  0  0  0  0  0  0  0
    3.7435   -0.9868    0.0000 C   0  0  0  0  0  0  0  0  0  0  0  0
    3.7435    0.9868    0.0000 C   0  0  0  0  0  0  0  0  0  0  0  0
    8.2776   -6.9435    0.0000 C   0  0  0  0  0  0  0  0  0  0  0  0
    8.2775    6.9435    0.0000 C   0  0  0  0  0  0  0  0  0  0  0  0
   10.0783   -6.1038    0.0000 C   0  0  0  0  0  0  0  0  0  0  0  0
   10.0783   -4.3718    0.0000 C   0  0  0  0  0  0  0  0  0  0  0  0
    5.3231    6.4226    0.0000 C   0  0  0  0  0  0  0  0  0  0  0  0
    5.6239    4.7169    0.0000 C   0  0  0  0  0  0  0  0  0  0  0  0
    5.3231   -6.4226    0.0000 C   0  0  0  0  0  0  0  0  0  0  0  0
    5.6238   -4.7168    0.0000 C   0  0  0  0  0  0  0  0  0  0  0  0
   10.0783    6.1038    0.0000 C   0  0  0  0  0  0  0  0  0  0  0  0
   10.0783    4.3718    0.0000 C   0  0  0  0  0  0  0  0  0  0  0  0
   11.6196   -0.4769    0.0000 C   0  0  0  0  0  0  0  0  0  0  0  0
   10.7710    1.9867    0.0000 C   0  0  0  0  0  0  0  0  0  0  0  0
    3.7319   -1.9868    0.0000 C   0  0  0  0  0  0  0  0  0  0  0  0
    3.7319    1.9867    0.0000 C   0  0  0  0  0  0  0  0  0  0  0  0
   10.7710   -1.9868    0.0000 C   0  0  0  0  0  0  0  0  0  0  0  0
   11.6196    0.4768    0.0000 C   0  0  0  0  0  0  0  0  0  0  0  0
    2.8833   -0.4769    0.0000 C   0  0  0  0  0  0  0  0  0  0  0  0
    2.8833    0.4768    0.0000 C   0  0  0  0  0  0  0  0  0  0  0  0
   12.4914   -0.9668    0.0000 C   0  0  0  0  0  0  0  0  0  0  0  0
   11.6427    2.4767    0.0000 C   0  0  0  0  0  0  0  0  0  0  0  0
    2.8602   -2.4767    0.0000 C   0  0  0  0  0  0  0  0  0  0  0  0
    2.8602    2.4767    0.0000 C   0  0  0  0  0  0  0  0  0  0  0  0
   11.6427   -2.4767    0.0000 C   0  0  0  0  0  0  0  0  0  0  0  0
   12.4914    0.9668    0.0000 C   0  0  0  0  0  0  0  0  0  0  0  0
    2.0116   -0.9668    0.0000 C   0  0  0  0  0  0  0  0  0  0  0  0
    2.0116    0.9668    0.0000 C   0  0  0  0  0  0  0  0  0  0  0  0
   12.5029   -1.9667    0.0000 C   0  0  0  0  0  0  0  0  0  0  0  0
   12.5029    1.9667    0.0000 C   0  0  0  0  0  0  0  0  0  0  0  0
    2.0000   -1.9667    0.0000 C   0  0  0  0  0  0  0  0  0  0  0  0
    2.0000    1.9667    0.0000 C   0  0  0  0  0  0  0  0  0  0  0  0
    9.5736   -2.3564    0.0000 H   0  0  0  0  0  0  0  0  0  0  0  0
    9.5736    2.3564    0.0000 H   0  0  0  0  0  0  0  0  0  0  0  0
    4.9293   -2.3564    0.0000 H   0  0  0  0  0  0  0  0  0  0  0  0
    4.9293    2.3564    0.0000 H   0  0  0  0  0  0  0  0  0  0  0  0
   10.1983   -5.2378    0.0000 H   0  0  0  0  0  0  0  0  0  0  0  0
    5.3553    5.5489    0.0000 H   0  0  0  0  0  0  0  0  0  0  0  0
    5.3553   -5.5489    0.0000 H   0  0  0  0  0  0  0  0  0  0  0  0
   10.1983    5.2378    0.0000 H   0  0  0  0  0  0  0  0  0  0  0  0
    9.5309   -6.2852    0.0000 H   0  0  0  0  0  0  0  0  0  0  0  0
    6.8942    7.2448    0.0000 H   0  0  0  0  0  0  0  0  0  0  0  0
    6.8943   -7.2449    0.0000 H   0  0  0  0  0  0  0  0  0  0  0  0
    9.5309    6.2851    0.0000 H   0  0  0  0  0  0  0  0  0  0  0  0
    8.4897   -7.5261    0.0000 H   0  0  0  0  0  0  0  0  0  0  0  0
    8.4896    7.5261    0.0000 H   0  0  0  0  0  0  0  0  0  0  0  0
    9.5414   -6.4138    0.0000 H   0  0  0  0  0  0  0  0  0  0  0  0
   10.3883   -6.6408    0.0000 H   0  0  0  0  0  0  0  0  0  0  0  0
   10.6152   -5.7938    0.0000 H   0  0  0  0  0  0  0  0  0  0  0  0
   10.6152   -4.6818    0.0000 H   0  0  0  0  0  0  0  0  0  0  0  0
   10.3883   -3.8348    0.0000 H   0  0  0  0  0  0  0  0  0  0  0  0
    9.5414   -4.0618    0.0000 H   0  0  0  0  0  0  0  0  0  0  0  0
    5.7980    6.8211    0.0000 H   0  0  0  0  0  0  0  0  0  0  0  0
    4.9246    6.8975    0.0000 H   0  0  0  0  0  0  0  0  0  0  0  0
    4.8482    6.0240    0.0000 H   0  0  0  0  0  0  0  0  0  0  0  0
    5.0413    4.9290    0.0000 H   0  0  0  0  0  0  0  0  0  0  0  0
    5.4118    4.1343    0.0000 H   0  0  0  0  0  0  0  0  0  0  0  0
    6.2065    4.5049    0.0000 H   0  0  0  0  0  0  0  0  0  0  0  0
    4.8481   -6.0241    0.0000 H   0  0  0  0  0  0  0  0  0  0  0  0
    4.9245   -6.8975    0.0000 H   0  0  0  0  0  0  0  0  0  0  0  0
    5.7980   -6.8211    0.0000 H   0  0  0  0  0  0  0  0  0  0  0  0
    6.2064   -4.5047    0.0000 H   0  0  0  0  0  0  0  0  0  0  0  0
    5.4118   -4.1342    0.0000 H   0  0  0  0  0  0  0  0  0  0  0  0
    5.0412   -4.9288    0.0000 H   0  0  0  0  0  0  0  0  0  0  0  0
   10.6152    5.7938    0.0000 H   0  0  0  0  0  0  0  0  0  0  0  0
   10.3883    6.6407    0.0000 H   0  0  0  0  0  0  0  0  0  0  0  0
    9.5414    6.4138    0.0000 H   0  0  0  0  0  0  0  0  0  0  0  0
    9.5414    4.0618    0.0000 H   0  0  0  0  0  0  0  0  0  0  0  0
   10.3883    3.8348    0.0000 H   0  0  0  0  0  0  0  0  0  0  0  0
   10.6152    4.6818    0.0000 H   0  0  0  0  0  0  0  0  0  0  0  0
   11.6124    0.1431    0.0000 H   0  0  0  0  0  0  0  0  0  0  0  0
   10.2377    2.3029    0.0000 H   0  0  0  0  0  0  0  0  0  0  0  0
    4.2652   -2.3030    0.0000 H   0  0  0  0  0  0  0  0  0  0  0  0
    4.2652    2.3029    0.0000 H   0  0  0  0  0  0  0  0  0  0  0  0
   10.2377   -2.3030    0.0000 H   0  0  0  0  0  0  0  0  0  0  0  0
   11.6124   -0.1431    0.0000 H   0  0  0  0  0  0  0  0  0  0  0  0
    2.8905    0.1431    0.0000 H   0  0  0  0  0  0  0  0  0  0  0  0
    2.8905   -0.1431    0.0000 H   0  0  0  0  0  0  0  0  0  0  0  0
   13.0247   -0.6506    0.0000 H   0  0  0  0  0  0  0  0  0  0  0  0
   11.6499    3.0966    0.0000 H   0  0  0  0  0  0  0  0  0  0  0  0
    2.8530   -3.0967    0.0000 H   0  0  0  0  0  0  0  0  0  0  0  0
    2.8530    3.0966    0.0000 H   0  0  0  0  0  0  0  0  0  0  0  0
   11.6499   -3.0967    0.0000 H   0  0  0  0  0  0  0  0  0  0  0  0
   13.0247    0.6506    0.0000 H   0  0  0  0  0  0  0  0  0  0  0  0
    1.4782   -0.6506    0.0000 H   0  0  0  0  0  0  0  0  0  0  0  0
    1.4782    0.6506    0.0000 H   0  0  0  0  0  0  0  0  0  0  0  0
   13.0434   -2.2705    0.0000 H   0  0  0  0  0  0  0  0  0  0  0  0
   13.0434    2.2705    0.0000 H   0  0  0  0  0  0  0  0  0  0  0  0
    1.4595   -2.2705    0.0000 H   0  0  0  0  0  0  0  0  0  0  0  0
    1.4595    2.2705    0.0000 H   0  0  0  0  0  0  0  0  0  0  0  0
  1 23  1  0  0  0  0
  1 49  1  0  0  0  0
  2 24  1  0  0  0  0
  2 50  1  0  0  0  0
  3 25  1  0  0  0  0
  3 51  1  0  0  0  0
  4 26  1  0  0  0  0
  4 52  1  0  0  0  0
  5 31  2  0  0  0  0
  6 32  2  0  0  0  0
  7 33  2  0  0  0  0
  8 34  2  0  0  0  0
  9 31  1  0  0  0  0
  9 32  1  0  0  0  0
  9 35  1  0  0  0  0
 10 33  1  0  0  0  0
 10 34  1  0  0  0  0
 10 36  1  0  0  0  0
 11 13  1  0  0  0  0
 11 14  1  0  0  0  0
 11 17  2  0  0  0  0
 12 15  1  0  0  0  0
 12 16  1  0  0  0  0
 12 18  2  0  0  0  0
 13 15  1  0  0  0  0
 13 23  2  0  0  0  0
 14 16  1  0  0  0  0
 14 25  2  0  0  0  0
 15 24  2  0  0  0  0
 16 26  2  0  0  0  0
 17 19  1  0  0  0  0
 17 20  1  0  0  0  0
 18 21  1  0  0  0  0
 18 22  1  0  0  0  0
 19 27  2  0  0  0  0
 19 31  1  0  0  0  0
 20 29  2  0  0  0  0
 20 32  1  0  0  0  0
 21 28  2  0  0  0  0
 21 33  1  0  0  0  0
 22 30  2  0  0  0  0
 22 34  1  0  0  0  0
 23 27  1  0  0  0  0
 24 28  1  0  0  0  0
 25 29  1  0  0  0  0
 26 30  1  0  0  0  0
 27 83  1  0  0  0  0
 28 84  1  0  0  0  0
 29 85  1  0  0  0  0
 30 86  1  0  0  0  0
 35 37  2  0  0  0  0
 35 39  1  0  0  0  0
 36 38  2  0  0  0  0
 36 40  1  0  0  0  0
 37 41  1  0  0  0  0
 37 45  1  0  0  0  0
 38 42  1  0  0  0  0
 38 46  1  0  0  0  0
 39 43  1  0  0  0  0
 39 47  2  0  0  0  0
 40 44  1  0  0  0  0
 40 48  2  0  0  0  0
 41 55  1  0  0  0  0
 41 56  1  0  0  0  0
 41 87  1  0  0  0  0
 42 57  1  0  0  0  0
 42 58  1  0  0  0  0
 42 88  1  0  0  0  0
 43 59  1  0  0  0  0
 43 60  1  0  0  0  0
 43 89  1  0  0  0  0
 44 61  1  0  0  0  0
 44 62  1  0  0  0  0
 44 90  1  0  0  0  0
 45 53  2  0  0  0  0
 45 91  1  0  0  0  0
 46 54  2  0  0  0  0
 46 92  1  0  0  0  0
 47 53  1  0  0  0  0
 47 93  1  0  0  0  0
 48 54  1  0  0  0  0
 48 94  1  0  0  0  0
 49 63  2  0  0  0  0
 49 67  1  0  0  0  0
 50 64  2  0  0  0  0
 50 68  1  0  0  0  0
 51 65  2  0  0  0  0
 51 69  1  0  0  0  0
 52 66  2  0  0  0  0
 52 70  1  0  0  0  0
 53 95  1  0  0  0  0
 54 96  1  0  0  0  0
 55 97  1  0  0  0  0
 55 98  1  0  0  0  0
 55 99  1  0  0  0  0
 56100  1  0  0  0  0
 56101  1  0  0  0  0
 56102  1  0  0  0  0
 57103  1  0  0  0  0
 57104  1  0  0  0  0
 57105  1  0  0  0  0
 58106  1  0  0  0  0
 58107  1  0  0  0  0
 58108  1  0  0  0  0
 59109  1  0  0  0  0
 59110  1  0  0  0  0
 59111  1  0  0  0  0
 60112  1  0  0  0  0
 60113  1  0  0  0  0
 60114  1  0  0  0  0
 61115  1  0  0  0  0
 61116  1  0  0  0  0
 61117  1  0  0  0  0
 62118  1  0  0  0  0
 62119  1  0  0  0  0
 62120  1  0  0  0  0
 63 71  1  0  0  0  0
 63121  1  0  0  0  0
 64 72  1  0  0  0  0
 64122  1  0  0  0  0
 65 73  1  0  0  0  0
 65123  1  0  0  0  0
 66 74  1  0  0  0  0
 66124  1  0  0  0  0
 67 75  2  0  0  0  0
 67125  1  0  0  0  0
 68 76  2  0  0  0  0
 68126  1  0  0  0  0
 69 77  2  0  0  0  0
 69127  1  0  0  0  0
 70 78  2  0  0  0  0
 70128  1  0  0  0  0
 71 79  2  0  0  0  0
 71129  1  0  0  0  0
 72 80  2  0  0  0  0
 72130  1  0  0  0  0
 73 81  2  0  0  0  0
 73131  1  0  0  0  0
 74 82  2  0  0  0  0
 74132  1  0  0  0  0
 75 79  1  0  0  0  0
 75133  1  0  0  0  0
 76 80  1  0  0  0  0
 76134  1  0  0  0  0
 77 81  1  0  0  0  0
 77135  1  0  0  0  0
 78 82  1  0  0  0  0
 78136  1  0  0  0  0
 79137  1  0  0  0  0
 80138  1  0  0  0  0
 81139  1  0  0  0  0
 82140  1  0  0  0  0
M  END
> <PUBCHEM_COMPOUND_CID>
16172388

> <PUBCHEM_COMPOUND_CANONICALIZED>
1

> <PUBCHEM_CACTVS_COMPLEXITY>
1940

> <PUBCHEM_CACTVS_HBOND_ACCEPTOR>
8

> <PUBCHEM_CACTVS_HBOND_DONOR>
0

> <PUBCHEM_CACTVS_ROTATABLE_BOND>
14

> <PUBCHEM_CACTVS_SUBSKEYS>
AAADcfB/PAAAAAAAAAAAAAAAAAAAAAAAAAA8eMGDAAAAAADxVAAAHgAAAAAADQyBmAAyxsMABACIAiVSUACCCAAlIAAIiAEGTMgMJjLEtZuGOSjkxDHI6Yf66/yO4AADAAAaAADAAAYAADQAAAAAAAAAAA==

> <PUBCHEM_IUPAC_OPENEYE_NAME>
7,18-bis(2,6-diisopropylphenyl)-11,14,22,26-tetraphenoxy-7,18-diazaheptacyclo[14.6.2.22,5.03,12.04,9.013,23.020,24]hexacosa-1(22),2(26),3,5(25),9,11,13,15,20,23-decaene-6,8,17,19-tetrone

> <PUBCHEM_IUPAC_CAS_NAME>
7,18-bis[2,6-di(propan-2-yl)phenyl]-11,14,22,26-tetraphenoxy-7,18-diazaheptacyclo[14.6.2.22,5.03,12.04,9.013,23.020,24]hexacosa-1(22),2(26),3,5(25),9,11,13,15,20,23-decaene-6,8,17,19-tetrone

> <PUBCHEM_IUPAC_NAME_MARKUP>
7,18-bis[2,6-di(propan-2-yl)phenyl]-11,14,22,26-tetraphenoxy-7,18-diazaheptacyclo[14.6.2.2<SUP>2,5</SUP>.0<SUP>3,12</SUP>.0<SUP>4,9</SUP>.0<SUP>13,23</SUP>.0<SUP>20,24</SUP>]hexacosa-1(22),2(26),3,5(25),9,11,13,15,20,23-decaene-6,8,17,19-tetrone

> <PUBCHEM_IUPAC_NAME>
7,18-bis[2,6-di(propan-2-yl)phenyl]-11,14,22,26-tetraphenoxy-7,18-diazaheptacyclo[14.6.2.22,5.03,12.04,9.013,23.020,24]hexacosa-1(22),2(26),3,5(25),9,11,13,15,20,23-decaene-6,8,17,19-tetrone

> <PUBCHEM_IUPAC_SYSTEMATIC_NAME>
7,18-bis[2,6-di(propan-2-yl)phenyl]-11,14,22,26-tetraphenoxy-7,18-diazaheptacyclo[14.6.2.22,5.03,12.04,9.013,23.020,24]hexacosa-1(22),2(26),3,5(25),9,11,13,15,20,23-decaene-6,8,17,19-tetrone

> <PUBCHEM_IUPAC_TRADITIONAL_NAME>
7,18-bis(2,6-diisopropylphenyl)-11,14,22,26-tetraphenoxy-7,18-diazaheptacyclo[14.6.2.22,5.03,12.04,9.013,23.020,24]hexacosa-1(22),2(26),3,5(25),9,11,13,15,20,23-decaene-6,8,17,19-diquinone

> <PUBCHEM_IUPAC_INCHI>
InChI=1S/C72H58N2O8/c1-39(2)47-31-21-32-48(40(3)4)67(47)73-69(75)51-35-55(79-43-23-13-9-14-24-43)61-63-57(81-45-27-17-11-18-28-45)37-53-60-54(72(78)74(71(53)77)68-49(41(5)6)33-22-34-50(68)42(7)8)38-58(82-46-29-19-12-20-30-46)64(66(60)63)62-56(80-44-25-15-10-16-26-44)36-52(70(73)76)59(51)65(61)62/h9-42H,1-8H3

> <PUBCHEM_IUPAC_INCHIKEY>
ZZSIDSMUTXFKNS-UHFFFAOYSA-N

> <PUBCHEM_XLOGP3_AA>
17.4

> <PUBCHEM_EXACT_MASS>
1078.41931681

> <PUBCHEM_MOLECULAR_FORMULA>
C72H58N2O8

> <PUBCHEM_MOLECULAR_WEIGHT>
1079.2

> <PUBCHEM_SMILES>
CC(C)C1=C(C(=CC=C1)C(C)C)N2C(=O)C3=CC(=C4C5=C(C=C6C7=C5C(=C(C=C7C(=O)N(C6=O)C8=C(C=CC=C8C(C)C)C(C)C)OC9=CC=CC=C9)C1=C(C=C(C3=C41)C2=O)OC1=CC=CC=C1)OC1=CC=CC=C1)OC1=CC=CC=C1

> <PUBCHEM_OPENEYE_CAN_SMILES>
CC(C)C1=C(C(=CC=C1)C(C)C)N2C(=O)C3=CC(=C4C5=C(C=C6C7=C5C(=C(C=C7C(=O)N(C6=O)C8=C(C=CC=C8C(C)C)C(C)C)OC9=CC=CC=C9)C1=C(C=C(C3=C41)C2=O)OC1=CC=CC=C1)OC1=CC=CC=C1)OC1=CC=CC=C1

> <PUBCHEM_OPENEYE_ISO_SMILES>
CC(C)C1=C(C(=CC=C1)C(C)C)N2C(=O)C3=CC(=C4C5=C(C=C6C7=C5C(=C(C=C7C(=O)N(C6=O)C8=C(C=CC=C8C(C)C)C(C)C)OC9=CC=CC=C9)C1=C(C=C(C3=C41)C2=O)OC1=CC=CC=C1)OC1=CC=CC=C1)OC1=CC=CC=C1

> <PUBCHEM_CACTVS_TPSA>
112

> <PUBCHEM_MONOISOTOPIC_WEIGHT>
1078.41931681

> <PUBCHEM_TOTAL_CHARGE>
0

> <PUBCHEM_HEAVY_ATOM_COUNT>
82

> <PUBCHEM_ATOM_DEF_STEREO_COUNT>
0

> <PUBCHEM_ATOM_UDEF_STEREO_COUNT>
0

> <PUBCHEM_BOND_DEF_STEREO_COUNT>
0

> <PUBCHEM_BOND_UDEF_STEREO_COUNT>
0

> <PUBCHEM_ISOTOPIC_ATOM_COUNT>
0

> <PUBCHEM_COMPONENT_COUNT>
1

> <PUBCHEM_CACTVS_TAUTO_COUNT>
-1

> <PUBCHEM_COORDINATE_TYPE>
1
5
255

> <PUBCHEM_BONDANNOTATIONS>
11  13  8
11  14  8
11  17  8
12  15  8
12  16  8
12  18  8
13  15  8
13  23  8
14  16  8
14  25  8
15  24  8
16  26  8
17  19  8
17  20  8
18  21  8
18  22  8
19  27  8
20  29  8
21  28  8
22  30  8
23  27  8
24  28  8
25  29  8
26  30  8
35  37  8
35  39  8
36  38  8
36  40  8
37  45  8
38  46  8
39  47  8
40  48  8
45  53  8
46  54  8
47  53  8
48  54  8
49  63  8
49  67  8
50  64  8
50  68  8
51  65  8
51  69  8
52  66  8
52  70  8
63  71  8
64  72  8
65  73  8
66  74  8
67  75  8
68  76  8
69  77  8
70  78  8
71  79  8
72  80  8
73  81  8
74  82  8
75  79  8
76  80  8
77  81  8
78  82  8

$$$$
