16206195
  -OEChem-04042512452D

 76 75  0     1  0  0  0  0  0999 V2000
    9.4651    2.2500    0.0000 O   0  0  0  0  0  0  0  0  0  0  0  0
    6.0010    2.2500    0.0000 O   0  0  0  0  0  0  0  0  0  0  0  0
   10.3312    3.7500    0.0000 O   0  0  0  0  0  0  0  0  0  0  0  0
    7.7331    1.2500    0.0000 O   0  0  0  0  0  0  0  0  0  0  0  0
    4.2690    1.2500    0.0000 O   0  0  0  0  0  0  0  0  0  0  0  0
    2.5369    2.2500    0.0000 O   0  0  0  0  0  0  0  0  0  0  0  0
   13.7953    2.7500    0.0000 C   0  0  0  0  0  0  0  0  0  0  0  0
   14.6613    2.2500    0.0000 C   0  0  0  0  0  0  0  0  0  0  0  0
   19.8574   -0.7500    0.0000 C   0  0  0  0  0  0  0  0  0  0  0  0
   18.9914   -0.2500    0.0000 C   0  0  0  0  0  0  0  0  0  0  0  0
   12.9292    2.2500    0.0000 C   0  0  0  0  0  0  0  0  0  0  0  0
   19.8574   -1.7500    0.0000 C   0  0  0  0  0  0  0  0  0  0  0  0
   15.5273    2.7500    0.0000 C   0  0  0  0  0  0  0  0  0  0  0  0
   18.9914    0.7500    0.0000 C   0  0  0  0  0  0  0  0  0  0  0  0
   12.0632    2.7500    0.0000 C   0  0  0  0  0  0  0  0  0  0  0  0
   20.7235   -2.2500    0.0000 C   0  0  0  0  0  0  0  0  0  0  0  0
   16.3933    2.2500    0.0000 C   0  0  0  0  0  0  0  0  0  0  0  0
   18.1254    1.2500    0.0000 C   0  0  0  0  0  0  0  0  0  0  0  0
   20.7235   -3.2500    0.0000 C   0  0  0  0  0  0  0  0  0  0  0  0
   11.1972    2.2500    0.0000 C   0  0  0  0  0  0  0  0  0  0  0  0
   17.2594    2.7500    0.0000 C   0  0  0  0  0  0  0  0  0  0  0  0
   18.1254    2.2500    0.0000 C   0  0  0  0  0  0  0  0  0  0  0  0
   21.5895   -3.7500    0.0000 C   0  0  0  0  0  0  0  0  0  0  0  0
   10.3312    2.7500    0.0000 C   0  0  0  0  0  0  0  0  0  0  0  0
    7.7331    2.2500    0.0000 C   0  0  3  0  0  0  0  0  0  0  0  0
    8.5991    2.7500    0.0000 C   0  0  0  0  0  0  0  0  0  0  0  0
    6.8671    2.7500    0.0000 C   0  0  0  0  0  0  0  0  0  0  0  0
    5.1350    2.7500    0.0000 C   0  0  0  0  0  0  0  0  0  0  0  0
    4.2690    2.2500    0.0000 C   0  0  3  0  0  0  0  0  0  0  0  0
    3.4030    2.7500    0.0000 C   0  0  0  0  0  0  0  0  0  0  0  0
   14.1938    3.2250    0.0000 H   0  0  0  0  0  0  0  0  0  0  0  0
   13.3967    3.2250    0.0000 H   0  0  0  0  0  0  0  0  0  0  0  0
   14.2628    1.7750    0.0000 H   0  0  0  0  0  0  0  0  0  0  0  0
   15.0598    1.7750    0.0000 H   0  0  0  0  0  0  0  0  0  0  0  0
   20.4680   -0.8577    0.0000 H   0  0  0  0  0  0  0  0  0  0  0  0
   20.0695   -0.1674    0.0000 H   0  0  0  0  0  0  0  0  0  0  0  0
   18.3808   -0.1423    0.0000 H   0  0  0  0  0  0  0  0  0  0  0  0
   18.7794   -0.8326    0.0000 H   0  0  0  0  0  0  0  0  0  0  0  0
   12.5307    1.7750    0.0000 H   0  0  0  0  0  0  0  0  0  0  0  0
   13.3278    1.7750    0.0000 H   0  0  0  0  0  0  0  0  0  0  0  0
   19.2469   -1.6423    0.0000 H   0  0  0  0  0  0  0  0  0  0  0  0
   19.6454   -2.3326    0.0000 H   0  0  0  0  0  0  0  0  0  0  0  0
   15.9258    3.2250    0.0000 H   0  0  0  0  0  0  0  0  0  0  0  0
   15.1288    3.2250    0.0000 H   0  0  0  0  0  0  0  0  0  0  0  0
   19.6020    0.6423    0.0000 H   0  0  0  0  0  0  0  0  0  0  0  0
   19.2035    1.3326    0.0000 H   0  0  0  0  0  0  0  0  0  0  0  0
   12.4617    3.2250    0.0000 H   0  0  0  0  0  0  0  0  0  0  0  0
   11.6647    3.2250    0.0000 H   0  0  0  0  0  0  0  0  0  0  0  0
   21.3340   -2.3577    0.0000 H   0  0  0  0  0  0  0  0  0  0  0  0
   20.9355   -1.6674    0.0000 H   0  0  0  0  0  0  0  0  0  0  0  0
   15.9948    1.7750    0.0000 H   0  0  0  0  0  0  0  0  0  0  0  0
   16.7919    1.7750    0.0000 H   0  0  0  0  0  0  0  0  0  0  0  0
   17.5148    1.3577    0.0000 H   0  0  0  0  0  0  0  0  0  0  0  0
   17.9133    0.6674    0.0000 H   0  0  0  0  0  0  0  0  0  0  0  0
   20.1129   -3.1423    0.0000 H   0  0  0  0  0  0  0  0  0  0  0  0
   20.5114   -3.8326    0.0000 H   0  0  0  0  0  0  0  0  0  0  0  0
   10.7987    1.7750    0.0000 H   0  0  0  0  0  0  0  0  0  0  0  0
   11.5957    1.7750    0.0000 H   0  0  0  0  0  0  0  0  0  0  0  0
   17.2594    3.3700    0.0000 H   0  0  0  0  0  0  0  0  0  0  0  0
   18.6623    2.5600    0.0000 H   0  0  0  0  0  0  0  0  0  0  0  0
   21.2795   -4.2869    0.0000 H   0  0  0  0  0  0  0  0  0  0  0  0
   22.1264   -4.0600    0.0000 H   0  0  0  0  0  0  0  0  0  0  0  0
   21.8995   -3.2131    0.0000 H   0  0  0  0  0  0  0  0  0  0  0  0
    8.2700    1.9400    0.0000 H   0  0  0  0  0  0  0  0  0  0  0  0
    8.9976    3.2250    0.0000 H   0  0  0  0  0  0  0  0  0  0  0  0
    8.2006    3.2250    0.0000 H   0  0  0  0  0  0  0  0  0  0  0  0
    7.2656    3.2250    0.0000 H   0  0  0  0  0  0  0  0  0  0  0  0
    6.4685    3.2250    0.0000 H   0  0  0  0  0  0  0  0  0  0  0  0
    5.5335    3.2250    0.0000 H   0  0  0  0  0  0  0  0  0  0  0  0
    4.7365    3.2250    0.0000 H   0  0  0  0  0  0  0  0  0  0  0  0
    4.8059    1.9400    0.0000 H   0  0  0  0  0  0  0  0  0  0  0  0
    7.1962    0.9400    0.0000 H   0  0  0  0  0  0  0  0  0  0  0  0
    3.8015    3.2250    0.0000 H   0  0  0  0  0  0  0  0  0  0  0  0
    3.0044    3.2250    0.0000 H   0  0  0  0  0  0  0  0  0  0  0  0
    3.7320    0.9400    0.0000 H   0  0  0  0  0  0  0  0  0  0  0  0
    2.0000    2.5600    0.0000 H   0  0  0  0  0  0  0  0  0  0  0  0
  1 24  1  0  0  0  0
  1 26  1  0  0  0  0
  2 27  1  0  0  0  0
  2 28  1  0  0  0  0
  3 24  2  0  0  0  0
  4 25  1  0  0  0  0
  4 72  1  0  0  0  0
  5 29  1  0  0  0  0
  5 75  1  0  0  0  0
  6 30  1  0  0  0  0
  6 76  1  0  0  0  0
  7  8  1  0  0  0  0
  7 11  1  0  0  0  0
  7 31  1  0  0  0  0
  7 32  1  0  0  0  0
  8 13  1  0  0  0  0
  8 33  1  0  0  0  0
  8 34  1  0  0  0  0
  9 10  1  0  0  0  0
  9 12  1  0  0  0  0
  9 35  1  0  0  0  0
  9 36  1  0  0  0  0
 10 14  1  0  0  0  0
 10 37  1  0  0  0  0
 10 38  1  0  0  0  0
 11 15  1  0  0  0  0
 11 39  1  0  0  0  0
 11 40  1  0  0  0  0
 12 16  1  0  0  0  0
 12 41  1  0  0  0  0
 12 42  1  0  0  0  0
 13 17  1  0  0  0  0
 13 43  1  0  0  0  0
 13 44  1  0  0  0  0
 14 18  1  0  0  0  0
 14 45  1  0  0  0  0
 14 46  1  0  0  0  0
 15 20  1  0  0  0  0
 15 47  1  0  0  0  0
 15 48  1  0  0  0  0
 16 19  1  0  0  0  0
 16 49  1  0  0  0  0
 16 50  1  0  0  0  0
 17 21  1  0  0  0  0
 17 51  1  0  0  0  0
 17 52  1  0  0  0  0
 18 22  1  0  0  0  0
 18 53  1  0  0  0  0
 18 54  1  0  0  0  0
 19 23  1  0  0  0  0
 19 55  1  0  0  0  0
 19 56  1  0  0  0  0
 20 24  1  0  0  0  0
 20 57  1  0  0  0  0
 20 58  1  0  0  0  0
 21 22  2  0  0  0  0
 21 59  1  0  0  0  0
 22 60  1  0  0  0  0
 23 61  1  0  0  0  0
 23 62  1  0  0  0  0
 23 63  1  0  0  0  0
 25 26  1  0  0  0  0
 25 27  1  0  0  0  0
 25 64  1  0  0  0  0
 26 65  1  0  0  0  0
 26 66  1  0  0  0  0
 27 67  1  0  0  0  0
 27 68  1  0  0  0  0
 28 29  1  0  0  0  0
 28 69  1  0  0  0  0
 28 70  1  0  0  0  0
 29 30  1  0  0  0  0
 29 71  1  0  0  0  0
 30 73  1  0  0  0  0
 30 74  1  0  0  0  0
M  END
> <PUBCHEM_COMPOUND_CID>
16206195

> <PUBCHEM_COMPOUND_CANONICALIZED>
1

> <PUBCHEM_CACTVS_COMPLEXITY>
399

> <PUBCHEM_CACTVS_HBOND_ACCEPTOR>
6

> <PUBCHEM_CACTVS_HBOND_DONOR>
3

> <PUBCHEM_CACTVS_ROTATABLE_BOND>
23

> <PUBCHEM_CACTVS_SUBSKEYS>
AAADcfB4OAAAAAAAAAAAAAAAAAAAAAAAAAAAAAAAAAAAAAAAAAAAGgAACAAACBSggAICCAAABgCIACDSCAAAAAAgAAAICAEAAAgBEBIAAQACQAAFgAALAAOIyKCAAAAAAAAAAAAAAAAAAAAAAAAAAAAAAA==

> <PUBCHEM_IUPAC_OPENEYE_NAME>
[3-(2,3-dihydroxypropoxy)-2-hydroxy-propyl] (Z)-octadec-9-enoate

> <PUBCHEM_IUPAC_CAS_NAME>
(Z)-9-octadecenoic acid [3-(2,3-dihydroxypropoxy)-2-hydroxypropyl] ester

> <PUBCHEM_IUPAC_NAME_MARKUP>
[3-(2,3-dihydroxypropoxy)-2-hydroxypropyl] (<I>Z</I>)-octadec-9-enoate

> <PUBCHEM_IUPAC_NAME>
[3-(2,3-dihydroxypropoxy)-2-hydroxypropyl] (Z)-octadec-9-enoate

> <PUBCHEM_IUPAC_SYSTEMATIC_NAME>
[3-[2,3-bis(oxidanyl)propoxy]-2-oxidanyl-propyl] (Z)-octadec-9-enoate

> <PUBCHEM_IUPAC_TRADITIONAL_NAME>
(Z)-octadec-9-enoic acid (3-glyceryloxy-2-hydroxy-propyl) ester

> <PUBCHEM_IUPAC_INCHI>
InChI=1S/C24H46O6/c1-2-3-4-5-6-7-8-9-10-11-12-13-14-15-16-17-24(28)30-21-23(27)20-29-19-22(26)18-25/h9-10,22-23,25-27H,2-8,11-21H2,1H3/b10-9-

> <PUBCHEM_IUPAC_INCHIKEY>
BKZCZANSHGDPSH-KTKRTIGZSA-N

> <PUBCHEM_XLOGP3_AA>
5.5

> <PUBCHEM_EXACT_MASS>
430.32943918

> <PUBCHEM_MOLECULAR_FORMULA>
C24H46O6

> <PUBCHEM_MOLECULAR_WEIGHT>
430.6

> <PUBCHEM_SMILES>
CCCCCCCC/C=C\CCCCCCCC(=O)OCC(COCC(CO)O)O

> <PUBCHEM_OPENEYE_CAN_SMILES>
CCCCCCCCC=CCCCCCCCC(=O)OCC(COCC(CO)O)O

> <PUBCHEM_OPENEYE_ISO_SMILES>
CCCCCCCC/C=C\CCCCCCCC(=O)OCC(COCC(CO)O)O

> <PUBCHEM_CACTVS_TPSA>
96.2

> <PUBCHEM_MONOISOTOPIC_WEIGHT>
430.32943918

> <PUBCHEM_TOTAL_CHARGE>
0

> <PUBCHEM_HEAVY_ATOM_COUNT>
30

> <PUBCHEM_ATOM_DEF_STEREO_COUNT>
0

> <PUBCHEM_ATOM_UDEF_STEREO_COUNT>
2

> <PUBCHEM_BOND_DEF_STEREO_COUNT>
1

> <PUBCHEM_BOND_UDEF_STEREO_COUNT>
0

> <PUBCHEM_ISOTOPIC_ATOM_COUNT>
0

> <PUBCHEM_COMPONENT_COUNT>
1

> <PUBCHEM_CACTVS_TAUTO_COUNT>
-1

> <PUBCHEM_COORDINATE_TYPE>
1
5
255

> <PUBCHEM_BONDANNOTATIONS>
25  4  3
29  5  3

$$$$
