162076
  -OEChem-04042505432D

 45 48  0     0  0  0  0  0  0999 V2000
    6.2619   -1.8385    0.0000 O   0  0  0  0  0  0  0  0  0  0  0  0
    8.2765    0.7135    0.0000 O   0  0  0  0  0  0  0  0  0  0  0  0
    3.4488    2.7726    0.0000 O   0  0  0  0  0  0  0  0  0  0  0  0
    4.6783   -2.6433    0.0000 N   0  0  0  0  0  0  0  0  0  0  0  0
    4.6783   -1.0338    0.0000 C   0  0  0  0  0  0  0  0  0  0  0  0
    3.7320   -1.3385    0.0000 C   0  0  0  0  0  0  0  0  0  0  0  0
    5.5778   -0.5970    0.0000 C   0  0  0  0  0  0  0  0  0  0  0  0
    4.3709   -0.0822    0.0000 C   0  0  0  0  0  0  0  0  0  0  0  0
    5.2619   -1.8385    0.0000 C   0  0  0  0  0  0  0  0  0  0  0  0
    3.7320   -2.3385    0.0000 C   0  0  0  0  0  0  0  0  0  0  0  0
    2.8660   -0.8385    0.0000 C   0  0  0  0  0  0  0  0  0  0  0  0
    6.4059   -1.1576    0.0000 C   0  0  0  0  0  0  0  0  0  0  0  0
    3.3931    0.1274    0.0000 C   0  0  0  0  0  0  0  0  0  0  0  0
    5.6493    0.4005    0.0000 C   0  0  0  0  0  0  0  0  0  0  0  0
    5.0413    0.6598    0.0000 C   0  0  0  0  0  0  0  0  0  0  0  0
    2.8660   -2.8385    0.0000 C   0  0  0  0  0  0  0  0  0  0  0  0
    7.3054   -0.7208    0.0000 C   0  0  0  0  0  0  0  0  0  0  0  0
    3.0857    1.0790    0.0000 C   0  0  0  0  0  0  0  0  0  0  0  0
    2.0000   -1.3385    0.0000 C   0  0  0  0  0  0  0  0  0  0  0  0
    2.0000   -2.3385    0.0000 C   0  0  0  0  0  0  0  0  0  0  0  0
    6.5489    0.8373    0.0000 C   0  0  0  0  0  0  0  0  0  0  0  0
    4.7339    1.6114    0.0000 C   0  0  0  0  0  0  0  0  0  0  0  0
    7.3769    0.2766    0.0000 C   0  0  0  0  0  0  0  0  0  0  0  0
    3.7562    1.8210    0.0000 C   0  0  0  0  0  0  0  0  0  0  0  0
    8.1335   -1.2814    0.0000 C   0  0  0  0  0  0  0  0  0  0  0  0
    2.1080    1.2886    0.0000 C   0  0  0  0  0  0  0  0  0  0  0  0
    4.8709   -3.2326    0.0000 H   0  0  0  0  0  0  0  0  0  0  0  0
    2.8660   -0.2185    0.0000 H   0  0  0  0  0  0  0  0  0  0  0  0
    6.3616   -1.7760    0.0000 H   0  0  0  0  0  0  0  0  0  0  0  0
    2.9775   -0.3326    0.0000 H   0  0  0  0  0  0  0  0  0  0  0  0
    5.1359    0.7480    0.0000 H   0  0  0  0  0  0  0  0  0  0  0  0
    5.6475    0.5298    0.0000 H   0  0  0  0  0  0  0  0  0  0  0  0
    2.8660   -3.4585    0.0000 H   0  0  0  0  0  0  0  0  0  0  0  0
    1.4631   -1.0285    0.0000 H   0  0  0  0  0  0  0  0  0  0  0  0
    1.4631   -2.6485    0.0000 H   0  0  0  0  0  0  0  0  0  0  0  0
    6.5932    1.4557    0.0000 H   0  0  0  0  0  0  0  0  0  0  0  0
    5.1496    2.0714    0.0000 H   0  0  0  0  0  0  0  0  0  0  0  0
    7.7859   -1.7948    0.0000 H   0  0  0  0  0  0  0  0  0  0  0  0
    8.6469   -1.6290    0.0000 H   0  0  0  0  0  0  0  0  0  0  0  0
    8.4811   -0.7680    0.0000 H   0  0  0  0  0  0  0  0  0  0  0  0
    2.2379    1.8948    0.0000 H   0  0  0  0  0  0  0  0  0  0  0  0
    1.5017    1.4185    0.0000 H   0  0  0  0  0  0  0  0  0  0  0  0
    1.9780    0.6824    0.0000 H   0  0  0  0  0  0  0  0  0  0  0  0
    8.3208    1.3319    0.0000 H   0  0  0  0  0  0  0  0  0  0  0  0
    3.8644    3.2326    0.0000 H   0  0  0  0  0  0  0  0  0  0  0  0
  1  9  2  0  0  0  0
  2 23  1  0  0  0  0
  2 44  1  0  0  0  0
  3 24  1  0  0  0  0
  3 45  1  0  0  0  0
  4  9  1  0  0  0  0
  4 10  1  0  0  0  0
  4 27  1  0  0  0  0
  5  6  1  0  0  0  0
  5  7  1  0  0  0  0
  5  8  1  0  0  0  0
  5  9  1  0  0  0  0
  6 10  1  0  0  0  0
  6 11  2  0  0  0  0
  7 12  2  0  0  0  0
  7 14  1  0  0  0  0
  8 13  2  0  0  0  0
  8 15  1  0  0  0  0
 10 16  2  0  0  0  0
 11 19  1  0  0  0  0
 11 28  1  0  0  0  0
 12 17  1  0  0  0  0
 12 29  1  0  0  0  0
 13 18  1  0  0  0  0
 13 30  1  0  0  0  0
 14 21  2  0  0  0  0
 14 31  1  0  0  0  0
 15 22  2  0  0  0  0
 15 32  1  0  0  0  0
 16 20  1  0  0  0  0
 16 33  1  0  0  0  0
 17 23  2  0  0  0  0
 17 25  1  0  0  0  0
 18 24  2  0  0  0  0
 18 26  1  0  0  0  0
 19 20  2  0  0  0  0
 19 34  1  0  0  0  0
 20 35  1  0  0  0  0
 21 23  1  0  0  0  0
 21 36  1  0  0  0  0
 22 24  1  0  0  0  0
 22 37  1  0  0  0  0
 25 38  1  0  0  0  0
 25 39  1  0  0  0  0
 25 40  1  0  0  0  0
 26 41  1  0  0  0  0
 26 42  1  0  0  0  0
 26 43  1  0  0  0  0
M  END
> <PUBCHEM_COMPOUND_CID>
162076

> <PUBCHEM_COMPOUND_CANONICALIZED>
1

> <PUBCHEM_CACTVS_COMPLEXITY>
509

> <PUBCHEM_CACTVS_HBOND_ACCEPTOR>
3

> <PUBCHEM_CACTVS_HBOND_DONOR>
3

> <PUBCHEM_CACTVS_ROTATABLE_BOND>
2

> <PUBCHEM_CACTVS_SUBSKEYS>
AAADceB6MAAAAAAAAAAAAAAAAAAAAWAAAAAwYMAAAAAAAFgBUAAAHgAQCAAADgyBmAAyxoLAAgCIAiVSUACCAAAhIgAIiAEGbIgIJjLClZOEcAhk1BHI2AecyPCPoAACAAAKAABAAAQAABQAAAAAAAAAAA==

> <PUBCHEM_IUPAC_OPENEYE_NAME>
3,3-bis(4-hydroxy-3-methyl-phenyl)indolin-2-one

> <PUBCHEM_IUPAC_CAS_NAME>
3,3-bis(4-hydroxy-3-methylphenyl)-1H-indol-2-one

> <PUBCHEM_IUPAC_NAME_MARKUP>
3,3-bis(4-hydroxy-3-methylphenyl)-1<I>H</I>-indol-2-one

> <PUBCHEM_IUPAC_NAME>
3,3-bis(4-hydroxy-3-methylphenyl)-1H-indol-2-one

> <PUBCHEM_IUPAC_SYSTEMATIC_NAME>
3,3-bis(3-methyl-4-oxidanyl-phenyl)-1H-indol-2-one

> <PUBCHEM_IUPAC_TRADITIONAL_NAME>
3,3-bis(4-hydroxy-3-methyl-phenyl)oxindole

> <PUBCHEM_IUPAC_INCHI>
InChI=1S/C22H19NO3/c1-13-11-15(7-9-19(13)24)22(16-8-10-20(25)14(2)12-16)17-5-3-4-6-18(17)23-21(22)26/h3-12,24-25H,1-2H3,(H,23,26)

> <PUBCHEM_IUPAC_INCHIKEY>
ZEKCYPANSOJWDH-UHFFFAOYSA-N

> <PUBCHEM_XLOGP3_AA>
4

> <PUBCHEM_EXACT_MASS>
345.13649347

> <PUBCHEM_MOLECULAR_FORMULA>
C22H19NO3

> <PUBCHEM_MOLECULAR_WEIGHT>
345.4

> <PUBCHEM_SMILES>
CC1=C(C=CC(=C1)C2(C3=CC=CC=C3NC2=O)C4=CC(=C(C=C4)O)C)O

> <PUBCHEM_OPENEYE_CAN_SMILES>
CC1=C(C=CC(=C1)C2(C3=CC=CC=C3NC2=O)C4=CC(=C(C=C4)O)C)O

> <PUBCHEM_OPENEYE_ISO_SMILES>
CC1=C(C=CC(=C1)C2(C3=CC=CC=C3NC2=O)C4=CC(=C(C=C4)O)C)O

> <PUBCHEM_CACTVS_TPSA>
69.6

> <PUBCHEM_MONOISOTOPIC_WEIGHT>
345.13649347

> <PUBCHEM_TOTAL_CHARGE>
0

> <PUBCHEM_HEAVY_ATOM_COUNT>
26

> <PUBCHEM_ATOM_DEF_STEREO_COUNT>
0

> <PUBCHEM_ATOM_UDEF_STEREO_COUNT>
0

> <PUBCHEM_BOND_DEF_STEREO_COUNT>
0

> <PUBCHEM_BOND_UDEF_STEREO_COUNT>
0

> <PUBCHEM_ISOTOPIC_ATOM_COUNT>
0

> <PUBCHEM_COMPONENT_COUNT>
1

> <PUBCHEM_CACTVS_TAUTO_COUNT>
-1

> <PUBCHEM_COORDINATE_TYPE>
1
5
255

> <PUBCHEM_BONDANNOTATIONS>
10  16  8
11  19  8
12  17  8
13  18  8
14  21  8
15  22  8
16  20  8
17  23  8
18  24  8
19  20  8
21  23  8
22  24  8
6  10  8
6  11  8
7  12  8
7  14  8
8  13  8
8  15  8

$$$$
