162097
  -OEChem-04042512162D

 36 35  0     0  0  0  0  0  0999 V2000
    8.9282    0.5670    0.0000 O   0  0  0  0  0  0  0  0  0  0  0  0
    8.0622   -0.9330    0.0000 O   0  0  0  0  0  0  0  0  0  0  0  0
    2.8660    0.0670    0.0000 C   0  0  0  0  0  0  0  0  0  0  0  0
    3.7320    0.5670    0.0000 C   0  0  0  0  0  0  0  0  0  0  0  0
    4.5981    0.0670    0.0000 C   0  0  0  0  0  0  0  0  0  0  0  0
    5.4641    0.5670    0.0000 C   0  0  0  0  0  0  0  0  0  0  0  0
    2.0000   -0.4330    0.0000 C   0  0  0  0  0  0  0  0  0  0  0  0
    2.3660    0.9330    0.0000 C   0  0  0  0  0  0  0  0  0  0  0  0
    3.3660   -0.7990    0.0000 C   0  0  0  0  0  0  0  0  0  0  0  0
    6.3301    0.0670    0.0000 C   0  0  0  0  0  0  0  0  0  0  0  0
    7.1962    0.5670    0.0000 C   0  0  0  0  0  0  0  0  0  0  0  0
    8.0622    0.0670    0.0000 C   0  0  0  0  0  0  0  0  0  0  0  0
    9.7942    0.0670    0.0000 C   0  0  0  0  0  0  0  0  0  0  0  0
   10.6603    0.5670    0.0000 C   0  0  0  0  0  0  0  0  0  0  0  0
    4.1306    1.0419    0.0000 H   0  0  0  0  0  0  0  0  0  0  0  0
    3.3335    1.0419    0.0000 H   0  0  0  0  0  0  0  0  0  0  0  0
    4.1996   -0.4080    0.0000 H   0  0  0  0  0  0  0  0  0  0  0  0
    4.9966   -0.4080    0.0000 H   0  0  0  0  0  0  0  0  0  0  0  0
    5.8626    1.0419    0.0000 H   0  0  0  0  0  0  0  0  0  0  0  0
    5.0656    1.0419    0.0000 H   0  0  0  0  0  0  0  0  0  0  0  0
    1.6900    0.1039    0.0000 H   0  0  0  0  0  0  0  0  0  0  0  0
    1.4631   -0.7430    0.0000 H   0  0  0  0  0  0  0  0  0  0  0  0
    2.3100   -0.9699    0.0000 H   0  0  0  0  0  0  0  0  0  0  0  0
    2.9030    1.2430    0.0000 H   0  0  0  0  0  0  0  0  0  0  0  0
    2.0560    1.4700    0.0000 H   0  0  0  0  0  0  0  0  0  0  0  0
    1.8291    0.6230    0.0000 H   0  0  0  0  0  0  0  0  0  0  0  0
    2.8291   -1.1090    0.0000 H   0  0  0  0  0  0  0  0  0  0  0  0
    3.6760   -1.3360    0.0000 H   0  0  0  0  0  0  0  0  0  0  0  0
    3.9030   -0.4890    0.0000 H   0  0  0  0  0  0  0  0  0  0  0  0
    5.9316   -0.4080    0.0000 H   0  0  0  0  0  0  0  0  0  0  0  0
    6.7287   -0.4080    0.0000 H   0  0  0  0  0  0  0  0  0  0  0  0
    7.5947    1.0419    0.0000 H   0  0  0  0  0  0  0  0  0  0  0  0
    6.7976    1.0419    0.0000 H   0  0  0  0  0  0  0  0  0  0  0  0
    9.7942   -0.5530    0.0000 H   0  0  0  0  0  0  0  0  0  0  0  0
   11.1972    0.2570    0.0000 H   0  0  0  0  0  0  0  0  0  0  0  0
   10.6603    1.1870    0.0000 H   0  0  0  0  0  0  0  0  0  0  0  0
  1 12  1  0  0  0  0
  1 13  1  0  0  0  0
  2 12  2  0  0  0  0
  3  4  1  0  0  0  0
  3  7  1  0  0  0  0
  3  8  1  0  0  0  0
  3  9  1  0  0  0  0
  4  5  1  0  0  0  0
  4 15  1  0  0  0  0
  4 16  1  0  0  0  0
  5  6  1  0  0  0  0
  5 17  1  0  0  0  0
  5 18  1  0  0  0  0
  6 10  1  0  0  0  0
  6 19  1  0  0  0  0
  6 20  1  0  0  0  0
  7 21  1  0  0  0  0
  7 22  1  0  0  0  0
  7 23  1  0  0  0  0
  8 24  1  0  0  0  0
  8 25  1  0  0  0  0
  8 26  1  0  0  0  0
  9 27  1  0  0  0  0
  9 28  1  0  0  0  0
  9 29  1  0  0  0  0
 10 11  1  0  0  0  0
 10 30  1  0  0  0  0
 10 31  1  0  0  0  0
 11 12  1  0  0  0  0
 11 32  1  0  0  0  0
 11 33  1  0  0  0  0
 13 14  2  0  0  0  0
 13 34  1  0  0  0  0
 14 35  1  0  0  0  0
 14 36  1  0  0  0  0
M  END
> <PUBCHEM_COMPOUND_CID>
162097

> <PUBCHEM_COMPOUND_CANONICALIZED>
1

> <PUBCHEM_CACTVS_COMPLEXITY>
177

> <PUBCHEM_CACTVS_HBOND_ACCEPTOR>
2

> <PUBCHEM_CACTVS_HBOND_DONOR>
0

> <PUBCHEM_CACTVS_ROTATABLE_BOND>
8

> <PUBCHEM_CACTVS_SUBSKEYS>
AAADceBwMAAAAAAAAAAAAAAAAAAAAAAAAAAAAAAAAAAAAAAAAAAAGgAAAAAADgCggAICCAAABACIAACSCAAACAAAAAAIAAEAAAAAABIAAAAAAAAEAAAAAAGIyOCNAAAAAAAAAAAAAAAAAAAAAAAAAAAAAA==

> <PUBCHEM_IUPAC_OPENEYE_NAME>
vinyl 7,7-dimethyloctanoate

> <PUBCHEM_IUPAC_CAS_NAME>
7,7-dimethyloctanoic acid ethenyl ester

> <PUBCHEM_IUPAC_NAME_MARKUP>
ethenyl 7,7-dimethyloctanoate

> <PUBCHEM_IUPAC_NAME>
ethenyl 7,7-dimethyloctanoate

> <PUBCHEM_IUPAC_SYSTEMATIC_NAME>
ethenyl 7,7-dimethyloctanoate

> <PUBCHEM_IUPAC_TRADITIONAL_NAME>
7,7-dimethylcaprylic acid vinyl ester

> <PUBCHEM_IUPAC_INCHI>
InChI=1S/C12H22O2/c1-5-14-11(13)9-7-6-8-10-12(2,3)4/h5H,1,6-10H2,2-4H3

> <PUBCHEM_IUPAC_INCHIKEY>
TVFJAZCVMOXQRK-UHFFFAOYSA-N

> <PUBCHEM_XLOGP3_AA>
4.2

> <PUBCHEM_EXACT_MASS>
198.161979940

> <PUBCHEM_MOLECULAR_FORMULA>
C12H22O2

> <PUBCHEM_MOLECULAR_WEIGHT>
198.30

> <PUBCHEM_SMILES>
CC(C)(C)CCCCCC(=O)OC=C

> <PUBCHEM_OPENEYE_CAN_SMILES>
CC(C)(C)CCCCCC(=O)OC=C

> <PUBCHEM_OPENEYE_ISO_SMILES>
CC(C)(C)CCCCCC(=O)OC=C

> <PUBCHEM_CACTVS_TPSA>
26.3

> <PUBCHEM_MONOISOTOPIC_WEIGHT>
198.161979940

> <PUBCHEM_TOTAL_CHARGE>
0

> <PUBCHEM_HEAVY_ATOM_COUNT>
14

> <PUBCHEM_ATOM_DEF_STEREO_COUNT>
0

> <PUBCHEM_ATOM_UDEF_STEREO_COUNT>
0

> <PUBCHEM_BOND_DEF_STEREO_COUNT>
0

> <PUBCHEM_BOND_UDEF_STEREO_COUNT>
0

> <PUBCHEM_ISOTOPIC_ATOM_COUNT>
0

> <PUBCHEM_COMPONENT_COUNT>
1

> <PUBCHEM_CACTVS_TAUTO_COUNT>
-1

> <PUBCHEM_COORDINATE_TYPE>
1
5
255

$$$$
