16212263
  -OEChem-04042512372D

 14 10  0     0  0  0  0  0  0999 V2000
    0.0000    0.0000    0.0000 Cu  0  2  0  0  0  0  0  0  0  0  0  0
    2.1340    3.2320    0.0000 Cu  0  2  0  0  0  0  0  0  0  0  0  0
    1.0000    1.0000    0.0000 P   0  0  0  0  0  0  0  0  0  0  0  0
    2.5000    1.8660    0.0000 P   0  0  0  0  0  0  0  0  0  0  0  0
    2.0000    1.0000    0.0000 O   0  0  0  0  0  0  0  0  0  0  0  0
    0.0000    1.0000    0.0000 O   0  5  0  0  0  0  0  0  0  0  0  0
    1.0000    0.0000    0.0000 O   0  5  0  0  0  0  0  0  0  0  0  0
    1.6340    2.3660    0.0000 O   0  5  0  0  0  0  0  0  0  0  0  0
    3.0000    2.7320    0.0000 O   0  5  0  0  0  0  0  0  0  0  0  0
    1.0000    2.0000    0.0000 O   0  0  0  0  0  0  0  0  0  0  0  0
    3.3660    1.3660    0.0000 O   0  0  0  0  0  0  0  0  0  0  0  0
    1.6830    5.2320    0.0000 O   0  0  0  0  0  0  0  0  0  0  0  0
    2.2200    5.5420    0.0000 H   0  0  0  0  0  0  0  0  0  0  0  0
    1.1461    5.5420    0.0000 H   0  0  0  0  0  0  0  0  0  0  0  0
  3  5  1  0  0  0  0
  3  6  1  0  0  0  0
  3  7  1  0  0  0  0
  3 10  2  0  0  0  0
  4  5  1  0  0  0  0
  4  8  1  0  0  0  0
  4  9  1  0  0  0  0
  4 11  2  0  0  0  0
 12 13  1  0  0  0  0
 12 14  1  0  0  0  0
M  CHG  6   1   2   2   2   6  -1   7  -1   8  -1   9  -1
M  END
> <PUBCHEM_COMPOUND_CID>
16212263

> <PUBCHEM_COMPOUND_CANONICALIZED>
1

> <PUBCHEM_CACTVS_COMPLEXITY>
124

> <PUBCHEM_CACTVS_HBOND_ACCEPTOR>
8

> <PUBCHEM_CACTVS_HBOND_DONOR>
1

> <PUBCHEM_CACTVS_ROTATABLE_BOND>
0

> <PUBCHEM_CACTVS_SUBSKEYS>
AAADcQAAPAMAAAAEAAAAAAAAAAAAAAAAAAAAAAAAAAAAAAAAAAAAAAAACCAAAAAAAAAAAAAAABAAQAAAAIAAAAAAAAAAAAAAAAAAAAAAAAAAAAAAAAAAAAAAAAAAAAAAAAAAAAAAAAAAAAAAAAAAAAAAAA==

> <PUBCHEM_IUPAC_OPENEYE_NAME>
dicopper;phosphonato phosphate;hydrate

> <PUBCHEM_IUPAC_CAS_NAME>
dicopper;phosphonato phosphate;hydrate

> <PUBCHEM_IUPAC_NAME_MARKUP>
dicopper;phosphonato phosphate;hydrate

> <PUBCHEM_IUPAC_NAME>
dicopper;phosphonato phosphate;hydrate

> <PUBCHEM_IUPAC_SYSTEMATIC_NAME>
dicopper;phosphonato phosphate;hydrate

> <PUBCHEM_IUPAC_TRADITIONAL_NAME>
dicupric;phosphonato phosphate;hydrate

> <PUBCHEM_IUPAC_INCHI>
InChI=1S/2Cu.H4O7P2.H2O/c;;1-8(2,3)7-9(4,5)6;/h;;(H2,1,2,3)(H2,4,5,6);1H2/q2*+2;;/p-4

> <PUBCHEM_IUPAC_INCHIKEY>
PXZSJEBZWADSIY-UHFFFAOYSA-J

> <PUBCHEM_EXACT_MASS>
317.781685

> <PUBCHEM_MOLECULAR_FORMULA>
Cu2H2O8P2

> <PUBCHEM_MOLECULAR_WEIGHT>
319.05

> <PUBCHEM_SMILES>
O.[O-]P(=O)([O-])OP(=O)([O-])[O-].[Cu+2].[Cu+2]

> <PUBCHEM_OPENEYE_CAN_SMILES>
O.[O-]P(=O)([O-])OP(=O)([O-])[O-].[Cu+2].[Cu+2]

> <PUBCHEM_OPENEYE_ISO_SMILES>
O.[O-]P(=O)([O-])OP(=O)([O-])[O-].[Cu+2].[Cu+2]

> <PUBCHEM_CACTVS_TPSA>
137

> <PUBCHEM_MONOISOTOPIC_WEIGHT>
317.781685

> <PUBCHEM_TOTAL_CHARGE>
0

> <PUBCHEM_HEAVY_ATOM_COUNT>
12

> <PUBCHEM_ATOM_DEF_STEREO_COUNT>
0

> <PUBCHEM_ATOM_UDEF_STEREO_COUNT>
0

> <PUBCHEM_BOND_DEF_STEREO_COUNT>
0

> <PUBCHEM_BOND_UDEF_STEREO_COUNT>
0

> <PUBCHEM_ISOTOPIC_ATOM_COUNT>
0

> <PUBCHEM_COMPONENT_COUNT>
4

> <PUBCHEM_CACTVS_TAUTO_COUNT>
-1

> <PUBCHEM_COORDINATE_TYPE>
1
5
255

$$$$
