16213095
  -OEChem-04042505522D

 83 83  0     1  0  0  0  0  0999 V2000
    4.8671    5.6200    0.0000 O   0  0  0  0  0  0  0  0  0  0  0  0
    4.8671    2.6200    0.0000 O   0  0  0  0  0  0  0  0  0  0  0  0
    3.1350    3.6200    0.0000 O   0  0  0  0  0  0  0  0  0  0  0  0
    6.5991    3.6200    0.0000 O   0  0  0  0  0  0  0  0  0  0  0  0
    6.5991    5.6200    0.0000 O   0  0  0  0  0  0  0  0  0  0  0  0
    3.1350    6.6200    0.0000 O   0  0  0  0  0  0  0  0  0  0  0  0
    4.8302   12.5500    0.0000 O   0  0  0  0  0  0  0  0  0  0  0  0
    6.5623   14.5500    0.0000 O   0  0  0  0  0  0  0  0  0  0  0  0
    4.8302   15.5500    0.0000 O   0  0  0  0  0  0  0  0  0  0  0  0
    3.0982   14.5500    0.0000 O   0  0  0  0  0  0  0  0  0  0  0  0
    3.0982   12.5500    0.0000 O   0  0  0  0  0  0  0  0  0  0  0  0
    6.5623   11.5500    0.0000 O   0  0  0  0  0  0  0  0  0  0  0  0
    3.1350    0.6200    0.0000 O   0  0  0  0  0  0  0  0  0  0  0  0
    0.5369    4.1200    0.0000 O   0  0  0  0  0  0  0  0  0  0  0  0
    9.1972    4.1200    0.0000 O   0  0  0  0  0  0  0  0  0  0  0  0
    7.4651    8.1200    0.0000 O   0  0  0  0  0  0  0  0  0  0  0  0
    1.4030    8.6200    0.0000 O   0  0  0  0  0  0  0  0  0  0  0  0
    4.8671    3.6200    0.0000 C   0  0  1  0  0  0  0  0  0  0  0  0
    4.0010    4.1200    0.0000 C   0  0  1  0  0  0  0  0  0  0  0  0
    5.7331    4.1200    0.0000 C   0  0  2  0  0  0  0  0  0  0  0  0
    4.0010    5.1200    0.0000 C   0  0  1  0  0  0  0  0  0  0  0  0
    5.7331    5.1200    0.0000 C   0  0  2  0  0  0  0  0  0  0  0  0
    3.1350    5.6200    0.0000 C   0  0  0  0  0  0  0  0  0  0  0  0
    5.6963   14.0500    0.0000 C   0  0  1  0  0  0  0  0  0  0  0  0
    4.8302   14.5500    0.0000 C   0  0  1  0  0  0  0  0  0  0  0  0
    5.6963   13.0500    0.0000 C   0  0  1  0  0  0  0  0  0  0  0  0
    4.0010    2.1200    0.0000 C   0  0  0  0  0  0  0  0  0  0  0  0
    3.9642   14.0500    0.0000 C   0  0  2  0  0  0  0  0  0  0  0  0
    2.2690    4.1200    0.0000 C   0  0  0  0  0  0  0  0  0  0  0  0
    7.4651    4.1200    0.0000 C   0  0  0  0  0  0  0  0  0  0  0  0
    3.9642   13.0500    0.0000 C   0  0  2  0  0  0  0  0  0  0  0  0
    6.5991    6.6200    0.0000 C   0  0  0  0  0  0  0  0  0  0  0  0
    6.5623   12.5500    0.0000 C   0  0  0  0  0  0  0  0  0  0  0  0
    4.0010    1.1200    0.0000 C   0  0  0  0  0  0  0  0  0  0  0  0
    1.4030    3.6200    0.0000 C   0  0  0  0  0  0  0  0  0  0  0  0
    2.2690    7.1200    0.0000 C   0  0  0  0  0  0  0  0  0  0  0  0
    8.3312    3.6200    0.0000 C   0  0  0  0  0  0  0  0  0  0  0  0
    7.4651    7.1200    0.0000 C   0  0  0  0  0  0  0  0  0  0  0  0
    2.2690    8.1200    0.0000 C   0  0  0  0  0  0  0  0  0  0  0  0
    4.3301    3.3100    0.0000 H   0  0  0  0  0  0  0  0  0  0  0  0
    4.0010    3.5000    0.0000 H   0  0  0  0  0  0  0  0  0  0  0  0
    5.7331    3.5000    0.0000 H   0  0  0  0  0  0  0  0  0  0  0  0
    4.0010    5.7400    0.0000 H   0  0  0  0  0  0  0  0  0  0  0  0
    6.2700    4.8100    0.0000 H   0  0  0  0  0  0  0  0  0  0  0  0
    2.5244    5.7277    0.0000 H   0  0  0  0  0  0  0  0  0  0  0  0
    2.9230    5.0374    0.0000 H   0  0  0  0  0  0  0  0  0  0  0  0
    6.2332   13.7400    0.0000 H   0  0  0  0  0  0  0  0  0  0  0  0
    5.3672   14.8600    0.0000 H   0  0  0  0  0  0  0  0  0  0  0  0
    5.6963   12.4300    0.0000 H   0  0  0  0  0  0  0  0  0  0  0  0
    3.9642   14.6700    0.0000 H   0  0  0  0  0  0  0  0  0  0  0  0
    3.7890    2.7026    0.0000 H   0  0  0  0  0  0  0  0  0  0  0  0
    3.3905    2.0123    0.0000 H   0  0  0  0  0  0  0  0  0  0  0  0
    2.6675    4.5950    0.0000 H   0  0  0  0  0  0  0  0  0  0  0  0
    1.8705    4.5950    0.0000 H   0  0  0  0  0  0  0  0  0  0  0  0
    7.8637    4.5950    0.0000 H   0  0  0  0  0  0  0  0  0  0  0  0
    7.0666    4.5950    0.0000 H   0  0  0  0  0  0  0  0  0  0  0  0
    3.9642   12.4300    0.0000 H   0  0  0  0  0  0  0  0  0  0  0  0
    6.3871    7.2026    0.0000 H   0  0  0  0  0  0  0  0  0  0  0  0
    5.9885    6.5123    0.0000 H   0  0  0  0  0  0  0  0  0  0  0  0
    7.1729   12.4423    0.0000 H   0  0  0  0  0  0  0  0  0  0  0  0
    6.7743   13.1326    0.0000 H   0  0  0  0  0  0  0  0  0  0  0  0
    4.2131    0.5374    0.0000 H   0  0  0  0  0  0  0  0  0  0  0  0
    4.6116    1.2277    0.0000 H   0  0  0  0  0  0  0  0  0  0  0  0
    1.0044    3.1450    0.0000 H   0  0  0  0  0  0  0  0  0  0  0  0
    1.8015    3.1450    0.0000 H   0  0  0  0  0  0  0  0  0  0  0  0
    1.6584    7.2277    0.0000 H   0  0  0  0  0  0  0  0  0  0  0  0
    2.0569    6.5374    0.0000 H   0  0  0  0  0  0  0  0  0  0  0  0
    7.9326    3.1450    0.0000 H   0  0  0  0  0  0  0  0  0  0  0  0
    8.7297    3.1450    0.0000 H   0  0  0  0  0  0  0  0  0  0  0  0
    7.6772    6.5374    0.0000 H   0  0  0  0  0  0  0  0  0  0  0  0
    8.0757    7.2277    0.0000 H   0  0  0  0  0  0  0  0  0  0  0  0
    7.0992   14.2400    0.0000 H   0  0  0  0  0  0  0  0  0  0  0  0
    4.2933   15.8600    0.0000 H   0  0  0  0  0  0  0  0  0  0  0  0
    2.5612   14.2400    0.0000 H   0  0  0  0  0  0  0  0  0  0  0  0
    3.0982   11.9300    0.0000 H   0  0  0  0  0  0  0  0  0  0  0  0
    2.8796    8.0123    0.0000 H   0  0  0  0  0  0  0  0  0  0  0  0
    2.4810    8.7026    0.0000 H   0  0  0  0  0  0  0  0  0  0  0  0
    7.0992   11.2400    0.0000 H   0  0  0  0  0  0  0  0  0  0  0  0
    3.1350    0.0000    0.0000 H   0  0  0  0  0  0  0  0  0  0  0  0
    0.0000    3.8100    0.0000 H   0  0  0  0  0  0  0  0  0  0  0  0
    9.7341    3.8100    0.0000 H   0  0  0  0  0  0  0  0  0  0  0  0
    8.0021    8.4300    0.0000 H   0  0  0  0  0  0  0  0  0  0  0  0
    1.4030    9.2400    0.0000 H   0  0  0  0  0  0  0  0  0  0  0  0
  1 21  1  0  0  0  0
  1 22  1  0  0  0  0
 18  2  1  1  0  0  0
  2 27  1  0  0  0  0
 19  3  1  6  0  0  0
  3 29  1  0  0  0  0
 20  4  1  6  0  0  0
  4 30  1  0  0  0  0
 22  5  1  6  0  0  0
  5 32  1  0  0  0  0
  6 23  1  0  0  0  0
  6 36  1  0  0  0  0
  7 26  1  0  0  0  0
  7 31  1  0  0  0  0
 24  8  1  6  0  0  0
  8 72  1  0  0  0  0
 25  9  1  1  0  0  0
  9 73  1  0  0  0  0
 28 10  1  6  0  0  0
 10 74  1  0  0  0  0
 31 11  1  6  0  0  0
 11 75  1  0  0  0  0
 12 33  1  0  0  0  0
 12 78  1  0  0  0  0
 13 34  1  0  0  0  0
 13 79  1  0  0  0  0
 14 35  1  0  0  0  0
 14 80  1  0  0  0  0
 15 37  1  0  0  0  0
 15 81  1  0  0  0  0
 16 38  1  0  0  0  0
 16 82  1  0  0  0  0
 17 39  1  0  0  0  0
 17 83  1  0  0  0  0
 18 19  1  0  0  0  0
 18 20  1  0  0  0  0
 18 40  1  0  0  0  0
 19 21  1  0  0  0  0
 19 41  1  0  0  0  0
 20 22  1  0  0  0  0
 20 42  1  0  0  0  0
 21 23  1  1  0  0  0
 21 43  1  0  0  0  0
 22 44  1  0  0  0  0
 23 45  1  0  0  0  0
 23 46  1  0  0  0  0
 24 25  1  0  0  0  0
 24 26  1  0  0  0  0
 24 47  1  0  0  0  0
 25 28  1  0  0  0  0
 25 48  1  0  0  0  0
 26 33  1  1  0  0  0
 26 49  1  0  0  0  0
 27 34  1  0  0  0  0
 27 51  1  0  0  0  0
 27 52  1  0  0  0  0
 28 31  1  0  0  0  0
 28 50  1  0  0  0  0
 29 35  1  0  0  0  0
 29 53  1  0  0  0  0
 29 54  1  0  0  0  0
 30 37  1  0  0  0  0
 30 55  1  0  0  0  0
 30 56  1  0  0  0  0
 31 57  1  0  0  0  0
 32 38  1  0  0  0  0
 32 58  1  0  0  0  0
 32 59  1  0  0  0  0
 33 60  1  0  0  0  0
 33 61  1  0  0  0  0
 34 62  1  0  0  0  0
 34 63  1  0  0  0  0
 35 64  1  0  0  0  0
 35 65  1  0  0  0  0
 36 39  1  0  0  0  0
 36 66  1  0  0  0  0
 36 67  1  0  0  0  0
 37 68  1  0  0  0  0
 37 69  1  0  0  0  0
 38 70  1  0  0  0  0
 38 71  1  0  0  0  0
 39 76  1  0  0  0  0
 39 77  1  0  0  0  0
M  END
> <PUBCHEM_COMPOUND_CID>
16213095

> <PUBCHEM_COMPOUND_CANONICALIZED>
1

> <PUBCHEM_CACTVS_COMPLEXITY>
497

> <PUBCHEM_CACTVS_HBOND_ACCEPTOR>
17

> <PUBCHEM_CACTVS_HBOND_DONOR>
10

> <PUBCHEM_CACTVS_ROTATABLE_BOND>
17

> <PUBCHEM_CACTVS_SUBSKEYS>
AAADcfB4PgAAAAAAAAAAAAAAAAAAAAAAAAAkSAAAAAAAAAAAAAAAGgAACAAACBSwgAMACAAABgAAAAAAAAAAAAAAAAAAAAAAAAAREAIAAAAiQAAFAAAHAAHAYAwAAAAAAAAAAAAAAAAAAAAAAAAAAAAAAA==

> <PUBCHEM_IUPAC_OPENEYE_NAME>
(2S,3R,4S,5S,6R)-6-(hydroxymethyl)tetrahydropyran-2,3,4,5-tetrol;2-[[(2R,3R,4S,5R,6S)-3,4,5,6-tetrakis(2-hydroxyethoxy)tetrahydropyran-2-yl]methoxy]ethanol

> <PUBCHEM_IUPAC_CAS_NAME>
(2S,3R,4S,5S,6R)-6-(hydroxymethyl)oxane-2,3,4,5-tetrol;2-[[(2R,3R,4S,5R,6S)-3,4,5,6-tetrakis(2-hydroxyethoxy)-2-oxanyl]methoxy]ethanol

> <PUBCHEM_IUPAC_NAME_MARKUP>
(2<I>S</I>,3<I>R</I>,4<I>S</I>,5<I>S</I>,6<I>R</I>)-6-(hydroxymethyl)oxane-2,3,4,5-tetrol;2-[[(2<I>R</I>,3<I>R</I>,4<I>S</I>,5<I>R</I>,6<I>S</I>)-3,4,5,6-tetrakis(2-hydroxyethoxy)oxan-2-yl]methoxy]ethanol

> <PUBCHEM_IUPAC_NAME>
(2S,3R,4S,5S,6R)-6-(hydroxymethyl)oxane-2,3,4,5-tetrol;2-[[(2R,3R,4S,5R,6S)-3,4,5,6-tetrakis(2-hydroxyethoxy)oxan-2-yl]methoxy]ethanol

> <PUBCHEM_IUPAC_SYSTEMATIC_NAME>
(2S,3R,4S,5S,6R)-6-(hydroxymethyl)oxane-2,3,4,5-tetrol;2-[[(2R,3R,4S,5R,6S)-3,4,5,6-tetrakis(2-hydroxyethyloxy)oxan-2-yl]methoxy]ethanol

> <PUBCHEM_IUPAC_TRADITIONAL_NAME>
(2S,3R,4S,5S,6R)-6-methyloltetrahydropyran-2,3,4,5-tetrol;2-[[(2R,3R,4S,5R,6S)-3,4,5,6-tetrakis(2-hydroxyethoxy)tetrahydropyran-2-yl]methoxy]ethanol

> <PUBCHEM_IUPAC_INCHI>
InChI=1S/C16H32O11.C6H12O6/c17-1-6-22-11-12-13(23-7-2-18)14(24-8-3-19)15(25-9-4-20)16(27-12)26-10-5-21;7-1-2-3(8)4(9)5(10)6(11)12-2/h12-21H,1-11H2;2-11H,1H2/t12-,13-,14+,15-,16+;2-,3-,4+,5-,6+/m11/s1

> <PUBCHEM_IUPAC_INCHIKEY>
DNZMDASEFMLYBU-RNBXVSKKSA-N

> <PUBCHEM_EXACT_MASS>
580.25784993

> <PUBCHEM_MOLECULAR_FORMULA>
C22H44O17

> <PUBCHEM_MOLECULAR_WEIGHT>
580.6

> <PUBCHEM_SMILES>
C(COC[C@@H]1[C@H]([C@@H]([C@H]([C@H](O1)OCCO)OCCO)OCCO)OCCO)O.C([C@@H]1[C@H]([C@@H]([C@H]([C@H](O1)O)O)O)O)O

> <PUBCHEM_OPENEYE_CAN_SMILES>
C(COCC1C(C(C(C(O1)OCCO)OCCO)OCCO)OCCO)O.C(C1C(C(C(C(O1)O)O)O)O)O

> <PUBCHEM_OPENEYE_ISO_SMILES>
C(COC[C@@H]1[C@H]([C@@H]([C@H]([C@H](O1)OCCO)OCCO)OCCO)OCCO)O.C([C@@H]1[C@H]([C@@H]([C@H]([C@H](O1)O)O)O)O)O

> <PUBCHEM_CACTVS_TPSA>
267

> <PUBCHEM_MONOISOTOPIC_WEIGHT>
580.25784993

> <PUBCHEM_TOTAL_CHARGE>
0

> <PUBCHEM_HEAVY_ATOM_COUNT>
39

> <PUBCHEM_ATOM_DEF_STEREO_COUNT>
10

> <PUBCHEM_ATOM_UDEF_STEREO_COUNT>
0

> <PUBCHEM_BOND_DEF_STEREO_COUNT>
0

> <PUBCHEM_BOND_UDEF_STEREO_COUNT>
0

> <PUBCHEM_ISOTOPIC_ATOM_COUNT>
0

> <PUBCHEM_COMPONENT_COUNT>
2

> <PUBCHEM_CACTVS_TAUTO_COUNT>
-1

> <PUBCHEM_COORDINATE_TYPE>
1
5
255

> <PUBCHEM_BONDANNOTATIONS>
28  10  6
31  11  6
18  2  5
21  23  5
26  33  5
19  3  6
20  4  6
22  5  6
24  8  6
25  9  5

$$$$
