162372
  -OEChem-04042512362D

  4  0  0     0  0  0  0  0  0999 V2000
    0.0000    2.5000    0.0000 W   0  0  0  0  0  0  0  0  0  0  0  0
    0.0000    0.0000    0.0000 O   0  6  0  0  0  0  0  0  0  0  0  0
    2.5000    0.0000    0.0000 O   0  6  0  0  0  0  0  0  0  0  0  0
    2.5000    2.5000    0.0000 O   0  6  0  0  0  0  0  0  0  0  0  0
M  CHG  3   2  -2   3  -2   4  -2
M  END
> <PUBCHEM_COMPOUND_CID>
162372

> <PUBCHEM_COMPOUND_CANONICALIZED>
1

> <PUBCHEM_CACTVS_COMPLEXITY>
0

> <PUBCHEM_CACTVS_HBOND_ACCEPTOR>
3

> <PUBCHEM_CACTVS_HBOND_DONOR>
0

> <PUBCHEM_CACTVS_ROTATABLE_BOND>
0

> <PUBCHEM_CACTVS_SUBSKEYS>
AAADcQAAMAAAAAAAAAAAQAAAAAAAAAAAAAAAAAAAAAAAAAAAAAAAAAAAAAAAAAAAAAAAAAAAAAAAAAAAAAAAAAAAAAAAAAAAAAAAAAAAAAAAAAAAAAAAAAAAAAAAAAAAAAAAAAAAAAAAAAAAAAAAAAAAAA==

> <PUBCHEM_IUPAC_OPENEYE_NAME>
oxygen(2-);tungsten

> <PUBCHEM_IUPAC_CAS_NAME>
oxygen(2-);tungsten

> <PUBCHEM_IUPAC_NAME_MARKUP>
oxygen(2-);tungsten

> <PUBCHEM_IUPAC_NAME>
oxygen(2-);tungsten

> <PUBCHEM_IUPAC_SYSTEMATIC_NAME>
oxygen(2-);tungsten

> <PUBCHEM_IUPAC_TRADITIONAL_NAME>
oxygen(2-);tungsten

> <PUBCHEM_IUPAC_INCHI>
InChI=1S/3O.W/q3*-2;

> <PUBCHEM_IUPAC_INCHIKEY>
UVXUOGLNBHCDPN-UHFFFAOYSA-N

> <PUBCHEM_EXACT_MASS>
231.935677

> <PUBCHEM_MOLECULAR_FORMULA>
O3W-6

> <PUBCHEM_MOLECULAR_WEIGHT>
231.84

> <PUBCHEM_SMILES>
[O-2].[O-2].[O-2].[W]

> <PUBCHEM_OPENEYE_CAN_SMILES>
[O-2].[O-2].[O-2].[W]

> <PUBCHEM_OPENEYE_ISO_SMILES>
[O-2].[O-2].[O-2].[W]

> <PUBCHEM_CACTVS_TPSA>
3

> <PUBCHEM_MONOISOTOPIC_WEIGHT>
231.935677

> <PUBCHEM_TOTAL_CHARGE>
-6

> <PUBCHEM_HEAVY_ATOM_COUNT>
4

> <PUBCHEM_ATOM_DEF_STEREO_COUNT>
0

> <PUBCHEM_ATOM_UDEF_STEREO_COUNT>
0

> <PUBCHEM_BOND_DEF_STEREO_COUNT>
0

> <PUBCHEM_BOND_UDEF_STEREO_COUNT>
0

> <PUBCHEM_ISOTOPIC_ATOM_COUNT>
0

> <PUBCHEM_COMPONENT_COUNT>
4

> <PUBCHEM_CACTVS_TAUTO_COUNT>
-1

> <PUBCHEM_COORDINATE_TYPE>
1
5
255

$$$$
