16386
  -OEChem-03202506192D

100100  0     0  0  0  0  0  0999 V2000
    2.8660    8.0000    0.0000 O   0  0  0  0  0  0  0  0  0  0  0  0
    7.1962    3.5000    0.0000 O   0  0  0  0  0  0  0  0  0  0  0  0
    8.0622    5.0000    0.0000 O   0  0  0  0  0  0  0  0  0  0  0  0
    4.5981    9.0000    0.0000 C   0  0  0  0  0  0  0  0  0  0  0  0
    2.8660    6.0000    0.0000 C   0  0  0  0  0  0  0  0  0  0  0  0
    4.5981    8.0000    0.0000 C   0  0  0  0  0  0  0  0  0  0  0  0
    3.7320    6.5000    0.0000 C   0  0  0  0  0  0  0  0  0  0  0  0
    3.7320    7.5000    0.0000 C   0  0  0  0  0  0  0  0  0  0  0  0
    5.4641    6.5000    0.0000 C   0  0  0  0  0  0  0  0  0  0  0  0
   11.5263   -3.0000    0.0000 C   0  0  0  0  0  0  0  0  0  0  0  0
   10.6603   -2.5000    0.0000 C   0  0  0  0  0  0  0  0  0  0  0  0
   11.5263   -4.0000    0.0000 C   0  0  0  0  0  0  0  0  0  0  0  0
    5.4641    7.5000    0.0000 C   0  0  0  0  0  0  0  0  0  0  0  0
    4.5981    6.0000    0.0000 C   0  0  0  0  0  0  0  0  0  0  0  0
   10.6603   -1.5000    0.0000 C   0  0  0  0  0  0  0  0  0  0  0  0
   12.3923   -4.5000    0.0000 C   0  0  0  0  0  0  0  0  0  0  0  0
    9.7942   -1.0000    0.0000 C   0  0  0  0  0  0  0  0  0  0  0  0
   12.3923   -5.5000    0.0000 C   0  0  0  0  0  0  0  0  0  0  0  0
    4.5981   10.0000    0.0000 C   0  0  0  0  0  0  0  0  0  0  0  0
    5.5981    9.0000    0.0000 C   0  0  0  0  0  0  0  0  0  0  0  0
    3.5981    9.0000    0.0000 C   0  0  0  0  0  0  0  0  0  0  0  0
    2.0000    5.5000    0.0000 C   0  0  0  0  0  0  0  0  0  0  0  0
    3.3660    5.1340    0.0000 C   0  0  0  0  0  0  0  0  0  0  0  0
    2.3660    6.8660    0.0000 C   0  0  0  0  0  0  0  0  0  0  0  0
    9.7942    0.0000    0.0000 C   0  0  0  0  0  0  0  0  0  0  0  0
   13.2583   -6.0000    0.0000 C   0  0  0  0  0  0  0  0  0  0  0  0
    6.3301    6.0000    0.0000 C   0  0  0  0  0  0  0  0  0  0  0  0
    8.9282    0.5000    0.0000 C   0  0  0  0  0  0  0  0  0  0  0  0
   13.2583   -7.0000    0.0000 C   0  0  0  0  0  0  0  0  0  0  0  0
    8.9282    1.5000    0.0000 C   0  0  0  0  0  0  0  0  0  0  0  0
   14.1244   -7.5000    0.0000 C   0  0  0  0  0  0  0  0  0  0  0  0
    6.3301    5.0000    0.0000 C   0  0  0  0  0  0  0  0  0  0  0  0
    8.0622    2.0000    0.0000 C   0  0  0  0  0  0  0  0  0  0  0  0
   14.1244   -8.5000    0.0000 C   0  0  0  0  0  0  0  0  0  0  0  0
    8.0622    3.0000    0.0000 C   0  0  0  0  0  0  0  0  0  0  0  0
   14.9904   -9.0000    0.0000 C   0  0  0  0  0  0  0  0  0  0  0  0
    7.1962    4.5000    0.0000 C   0  0  0  0  0  0  0  0  0  0  0  0
   14.9904  -10.0000    0.0000 C   0  0  0  0  0  0  0  0  0  0  0  0
   12.1369   -3.1077    0.0000 H   0  0  0  0  0  0  0  0  0  0  0  0
   11.7383   -2.4174    0.0000 H   0  0  0  0  0  0  0  0  0  0  0  0
   10.0497   -2.3923    0.0000 H   0  0  0  0  0  0  0  0  0  0  0  0
   10.4482   -3.0826    0.0000 H   0  0  0  0  0  0  0  0  0  0  0  0
   10.9157   -3.8923    0.0000 H   0  0  0  0  0  0  0  0  0  0  0  0
   11.3142   -4.5826    0.0000 H   0  0  0  0  0  0  0  0  0  0  0  0
    6.0010    7.8100    0.0000 H   0  0  0  0  0  0  0  0  0  0  0  0
    4.5981    5.3800    0.0000 H   0  0  0  0  0  0  0  0  0  0  0  0
   11.2708   -1.6077    0.0000 H   0  0  0  0  0  0  0  0  0  0  0  0
   10.8723   -0.9174    0.0000 H   0  0  0  0  0  0  0  0  0  0  0  0
   13.0029   -4.6077    0.0000 H   0  0  0  0  0  0  0  0  0  0  0  0
   12.6044   -3.9174    0.0000 H   0  0  0  0  0  0  0  0  0  0  0  0
    9.1836   -0.8923    0.0000 H   0  0  0  0  0  0  0  0  0  0  0  0
    9.5822   -1.5826    0.0000 H   0  0  0  0  0  0  0  0  0  0  0  0
   11.7817   -5.3923    0.0000 H   0  0  0  0  0  0  0  0  0  0  0  0
   12.1803   -6.0826    0.0000 H   0  0  0  0  0  0  0  0  0  0  0  0
    5.2181   10.0000    0.0000 H   0  0  0  0  0  0  0  0  0  0  0  0
    4.5981   10.6200    0.0000 H   0  0  0  0  0  0  0  0  0  0  0  0
    3.9781   10.0000    0.0000 H   0  0  0  0  0  0  0  0  0  0  0  0
    5.5981    8.3800    0.0000 H   0  0  0  0  0  0  0  0  0  0  0  0
    6.2181    9.0000    0.0000 H   0  0  0  0  0  0  0  0  0  0  0  0
    5.5981    9.6200    0.0000 H   0  0  0  0  0  0  0  0  0  0  0  0
    3.5981    9.6200    0.0000 H   0  0  0  0  0  0  0  0  0  0  0  0
    2.9781    9.0000    0.0000 H   0  0  0  0  0  0  0  0  0  0  0  0
    3.5981    8.3800    0.0000 H   0  0  0  0  0  0  0  0  0  0  0  0
    1.6900    6.0369    0.0000 H   0  0  0  0  0  0  0  0  0  0  0  0
    1.4631    5.1900    0.0000 H   0  0  0  0  0  0  0  0  0  0  0  0
    2.3100    4.9631    0.0000 H   0  0  0  0  0  0  0  0  0  0  0  0
    2.8291    4.8240    0.0000 H   0  0  0  0  0  0  0  0  0  0  0  0
    3.6760    4.5970    0.0000 H   0  0  0  0  0  0  0  0  0  0  0  0
    3.9030    5.4440    0.0000 H   0  0  0  0  0  0  0  0  0  0  0  0
    2.9030    7.1760    0.0000 H   0  0  0  0  0  0  0  0  0  0  0  0
    2.0560    7.4030    0.0000 H   0  0  0  0  0  0  0  0  0  0  0  0
    1.8291    6.5560    0.0000 H   0  0  0  0  0  0  0  0  0  0  0  0
   10.4048   -0.1077    0.0000 H   0  0  0  0  0  0  0  0  0  0  0  0
   10.0063    0.5826    0.0000 H   0  0  0  0  0  0  0  0  0  0  0  0
   13.8689   -6.1077    0.0000 H   0  0  0  0  0  0  0  0  0  0  0  0
   13.4704   -5.4174    0.0000 H   0  0  0  0  0  0  0  0  0  0  0  0
    6.9407    5.8923    0.0000 H   0  0  0  0  0  0  0  0  0  0  0  0
    6.5422    6.5826    0.0000 H   0  0  0  0  0  0  0  0  0  0  0  0
    8.3176    0.6077    0.0000 H   0  0  0  0  0  0  0  0  0  0  0  0
    8.7162   -0.0826    0.0000 H   0  0  0  0  0  0  0  0  0  0  0  0
   12.6477   -6.8923    0.0000 H   0  0  0  0  0  0  0  0  0  0  0  0
   13.0463   -7.5826    0.0000 H   0  0  0  0  0  0  0  0  0  0  0  0
    9.5388    1.3923    0.0000 H   0  0  0  0  0  0  0  0  0  0  0  0
    9.1403    2.0826    0.0000 H   0  0  0  0  0  0  0  0  0  0  0  0
   14.7349   -7.6077    0.0000 H   0  0  0  0  0  0  0  0  0  0  0  0
   14.3364   -6.9174    0.0000 H   0  0  0  0  0  0  0  0  0  0  0  0
    5.7196    5.1077    0.0000 H   0  0  0  0  0  0  0  0  0  0  0  0
    6.1181    4.4174    0.0000 H   0  0  0  0  0  0  0  0  0  0  0  0
    7.4516    2.1077    0.0000 H   0  0  0  0  0  0  0  0  0  0  0  0
    7.8501    1.4174    0.0000 H   0  0  0  0  0  0  0  0  0  0  0  0
   13.5138   -8.3923    0.0000 H   0  0  0  0  0  0  0  0  0  0  0  0
   13.9123   -9.0826    0.0000 H   0  0  0  0  0  0  0  0  0  0  0  0
    2.8660    8.6200    0.0000 H   0  0  0  0  0  0  0  0  0  0  0  0
    8.6728    2.8923    0.0000 H   0  0  0  0  0  0  0  0  0  0  0  0
    8.2742    3.5826    0.0000 H   0  0  0  0  0  0  0  0  0  0  0  0
   15.6010   -9.1077    0.0000 H   0  0  0  0  0  0  0  0  0  0  0  0
   15.2024   -8.4174    0.0000 H   0  0  0  0  0  0  0  0  0  0  0  0
   14.3704  -10.0000    0.0000 H   0  0  0  0  0  0  0  0  0  0  0  0
   14.9904  -10.6200    0.0000 H   0  0  0  0  0  0  0  0  0  0  0  0
   15.6104  -10.0000    0.0000 H   0  0  0  0  0  0  0  0  0  0  0  0
  1  8  1  0  0  0  0
  1 93  1  0  0  0  0
  2 35  1  0  0  0  0
  2 37  1  0  0  0  0
  3 37  2  0  0  0  0
  4  6  1  0  0  0  0
  4 19  1  0  0  0  0
  4 20  1  0  0  0  0
  4 21  1  0  0  0  0
  5  7  1  0  0  0  0
  5 22  1  0  0  0  0
  5 23  1  0  0  0  0
  5 24  1  0  0  0  0
  6  8  2  0  0  0  0
  6 13  1  0  0  0  0
  7  8  1  0  0  0  0
  7 14  2  0  0  0  0
  9 13  2  0  0  0  0
  9 14  1  0  0  0  0
  9 27  1  0  0  0  0
 10 11  1  0  0  0  0
 10 12  1  0  0  0  0
 10 39  1  0  0  0  0
 10 40  1  0  0  0  0
 11 15  1  0  0  0  0
 11 41  1  0  0  0  0
 11 42  1  0  0  0  0
 12 16  1  0  0  0  0
 12 43  1  0  0  0  0
 12 44  1  0  0  0  0
 13 45  1  0  0  0  0
 14 46  1  0  0  0  0
 15 17  1  0  0  0  0
 15 47  1  0  0  0  0
 15 48  1  0  0  0  0
 16 18  1  0  0  0  0
 16 49  1  0  0  0  0
 16 50  1  0  0  0  0
 17 25  1  0  0  0  0
 17 51  1  0  0  0  0
 17 52  1  0  0  0  0
 18 26  1  0  0  0  0
 18 53  1  0  0  0  0
 18 54  1  0  0  0  0
 19 55  1  0  0  0  0
 19 56  1  0  0  0  0
 19 57  1  0  0  0  0
 20 58  1  0  0  0  0
 20 59  1  0  0  0  0
 20 60  1  0  0  0  0
 21 61  1  0  0  0  0
 21 62  1  0  0  0  0
 21 63  1  0  0  0  0
 22 64  1  0  0  0  0
 22 65  1  0  0  0  0
 22 66  1  0  0  0  0
 23 67  1  0  0  0  0
 23 68  1  0  0  0  0
 23 69  1  0  0  0  0
 24 70  1  0  0  0  0
 24 71  1  0  0  0  0
 24 72  1  0  0  0  0
 25 28  1  0  0  0  0
 25 73  1  0  0  0  0
 25 74  1  0  0  0  0
 26 29  1  0  0  0  0
 26 75  1  0  0  0  0
 26 76  1  0  0  0  0
 27 32  1  0  0  0  0
 27 77  1  0  0  0  0
 27 78  1  0  0  0  0
 28 30  1  0  0  0  0
 28 79  1  0  0  0  0
 28 80  1  0  0  0  0
 29 31  1  0  0  0  0
 29 81  1  0  0  0  0
 29 82  1  0  0  0  0
 30 33  1  0  0  0  0
 30 83  1  0  0  0  0
 30 84  1  0  0  0  0
 31 34  1  0  0  0  0
 31 85  1  0  0  0  0
 31 86  1  0  0  0  0
 32 37  1  0  0  0  0
 32 87  1  0  0  0  0
 32 88  1  0  0  0  0
 33 35  1  0  0  0  0
 33 89  1  0  0  0  0
 33 90  1  0  0  0  0
 34 36  1  0  0  0  0
 34 91  1  0  0  0  0
 34 92  1  0  0  0  0
 35 94  1  0  0  0  0
 35 95  1  0  0  0  0
 36 38  1  0  0  0  0
 36 96  1  0  0  0  0
 36 97  1  0  0  0  0
 38 98  1  0  0  0  0
 38 99  1  0  0  0  0
 38100  1  0  0  0  0
M  END
> <PUBCHEM_COMPOUND_CID>
16386

> <PUBCHEM_COMPOUND_CANONICALIZED>
1

> <PUBCHEM_CACTVS_COMPLEXITY>
561

> <PUBCHEM_CACTVS_HBOND_ACCEPTOR>
3

> <PUBCHEM_CACTVS_HBOND_DONOR>
1

> <PUBCHEM_CACTVS_ROTATABLE_BOND>
23

> <PUBCHEM_CACTVS_SUBSKEYS>
AAADcfB8MAAAAAAAAAAAAAAAAAAAAAAAAAAwAAAAAAAAAAABAAAAGgAACAAADgSgmAIyDoAABgCIAiDSCAACAAAgIAAAiAEECIgIJjKCERKCcAAkwBEImAeIyOCPoAACAAAIAABAAAQAABAAAAAAAAAAAA==

> <PUBCHEM_IUPAC_OPENEYE_NAME>
octadecyl 3-(3,5-ditert-butyl-4-hydroxy-phenyl)propanoate

> <PUBCHEM_IUPAC_CAS_NAME>
3-(3,5-ditert-butyl-4-hydroxyphenyl)propanoic acid octadecyl ester

> <PUBCHEM_IUPAC_NAME_MARKUP>
octadecyl 3-(3,5-di<I>tert</I>-butyl-4-hydroxyphenyl)propanoate

> <PUBCHEM_IUPAC_NAME>
octadecyl 3-(3,5-ditert-butyl-4-hydroxyphenyl)propanoate

> <PUBCHEM_IUPAC_SYSTEMATIC_NAME>
octadecyl 3-(3,5-ditert-butyl-4-oxidanyl-phenyl)propanoate

> <PUBCHEM_IUPAC_TRADITIONAL_NAME>
3-(3,5-ditert-butyl-4-hydroxy-phenyl)propionic acid stearyl ester

> <PUBCHEM_IUPAC_INCHI>
InChI=1S/C35H62O3/c1-8-9-10-11-12-13-14-15-16-17-18-19-20-21-22-23-26-38-32(36)25-24-29-27-30(34(2,3)4)33(37)31(28-29)35(5,6)7/h27-28,37H,8-26H2,1-7H3

> <PUBCHEM_IUPAC_INCHIKEY>
SSDSCDGVMJFTEQ-UHFFFAOYSA-N

> <PUBCHEM_XLOGP3_AA>
13.8

> <PUBCHEM_EXACT_MASS>
530.46989584

> <PUBCHEM_MOLECULAR_FORMULA>
C35H62O3

> <PUBCHEM_MOLECULAR_WEIGHT>
530.9

> <PUBCHEM_SMILES>
CCCCCCCCCCCCCCCCCCOC(=O)CCC1=CC(=C(C(=C1)C(C)(C)C)O)C(C)(C)C

> <PUBCHEM_OPENEYE_CAN_SMILES>
CCCCCCCCCCCCCCCCCCOC(=O)CCC1=CC(=C(C(=C1)C(C)(C)C)O)C(C)(C)C

> <PUBCHEM_OPENEYE_ISO_SMILES>
CCCCCCCCCCCCCCCCCCOC(=O)CCC1=CC(=C(C(=C1)C(C)(C)C)O)C(C)(C)C

> <PUBCHEM_CACTVS_TPSA>
46.5

> <PUBCHEM_MONOISOTOPIC_WEIGHT>
530.46989584

> <PUBCHEM_TOTAL_CHARGE>
0

> <PUBCHEM_HEAVY_ATOM_COUNT>
38

> <PUBCHEM_ATOM_DEF_STEREO_COUNT>
0

> <PUBCHEM_ATOM_UDEF_STEREO_COUNT>
0

> <PUBCHEM_BOND_DEF_STEREO_COUNT>
0

> <PUBCHEM_BOND_UDEF_STEREO_COUNT>
0

> <PUBCHEM_ISOTOPIC_ATOM_COUNT>
0

> <PUBCHEM_COMPONENT_COUNT>
1

> <PUBCHEM_CACTVS_TAUTO_COUNT>
-1

> <PUBCHEM_COORDINATE_TYPE>
1
5
255

> <PUBCHEM_BONDANNOTATIONS>
6  13  8
6  8  8
7  14  8
7  8  8
9  13  8
9  14  8

$$$$
