164499
  -OEChem-04042505472D

119126  0     0  0  0  0  0  0999 V2000
    8.0622    1.7010    0.0000 P   0  0  0  0  0  0  0  0  0  0  0  0
    8.0622   -2.2990    0.0000 P   0  0  0  0  0  0  0  0  0  0  0  0
    8.9282    1.2010    0.0000 O   0  0  0  0  0  0  0  0  0  0  0  0
    7.1962    1.2010    0.0000 O   0  0  0  0  0  0  0  0  0  0  0  0
    8.9282   -1.7990    0.0000 O   0  0  0  0  0  0  0  0  0  0  0  0
    7.1962   -1.7990    0.0000 O   0  0  0  0  0  0  0  0  0  0  0  0
    8.0622    2.7010    0.0000 O   0  0  0  0  0  0  0  0  0  0  0  0
    8.0622   -3.2990    0.0000 O   0  0  0  0  0  0  0  0  0  0  0  0
    8.0622   -0.2990    0.0000 C   0  0  0  0  0  0  0  0  0  0  0  0
    8.9282    0.2010    0.0000 C   0  0  0  0  0  0  0  0  0  0  0  0
    7.1962    0.2010    0.0000 C   0  0  0  0  0  0  0  0  0  0  0  0
    8.9282   -0.7990    0.0000 C   0  0  0  0  0  0  0  0  0  0  0  0
    7.1962   -0.7990    0.0000 C   0  0  0  0  0  0  0  0  0  0  0  0
    8.0622    4.7010    0.0000 C   0  0  0  0  0  0  0  0  0  0  0  0
    8.0622   -5.2990    0.0000 C   0  0  0  0  0  0  0  0  0  0  0  0
   11.5263    4.7010    0.0000 C   0  0  0  0  0  0  0  0  0  0  0  0
    4.5981   -5.2990    0.0000 C   0  0  0  0  0  0  0  0  0  0  0  0
    8.9282    4.2010    0.0000 C   0  0  0  0  0  0  0  0  0  0  0  0
    7.1962   -4.7990    0.0000 C   0  0  0  0  0  0  0  0  0  0  0  0
   10.6603    4.2010    0.0000 C   0  0  0  0  0  0  0  0  0  0  0  0
    5.4641   -4.7990    0.0000 C   0  0  0  0  0  0  0  0  0  0  0  0
    8.9282    3.2010    0.0000 C   0  0  0  0  0  0  0  0  0  0  0  0
    7.1962   -3.7990    0.0000 C   0  0  0  0  0  0  0  0  0  0  0  0
    9.7942    4.7010    0.0000 C   0  0  0  0  0  0  0  0  0  0  0  0
    6.3301   -5.2990    0.0000 C   0  0  0  0  0  0  0  0  0  0  0  0
    8.5622    5.5670    0.0000 C   0  0  0  0  0  0  0  0  0  0  0  0
    8.9282   -5.7990    0.0000 C   0  0  0  0  0  0  0  0  0  0  0  0
    7.1962    5.2010    0.0000 C   0  0  0  0  0  0  0  0  0  0  0  0
    7.5622    3.8349    0.0000 C   0  0  0  0  0  0  0  0  0  0  0  0
    7.5622   -6.1651    0.0000 C   0  0  0  0  0  0  0  0  0  0  0  0
    8.5622   -4.4330    0.0000 C   0  0  0  0  0  0  0  0  0  0  0  0
   12.3923    5.2010    0.0000 C   0  0  0  0  0  0  0  0  0  0  0  0
    3.7320   -5.7990    0.0000 C   0  0  0  0  0  0  0  0  0  0  0  0
   10.6603    3.2010    0.0000 C   0  0  0  0  0  0  0  0  0  0  0  0
    5.4641   -3.7990    0.0000 C   0  0  0  0  0  0  0  0  0  0  0  0
   12.0263    3.8349    0.0000 C   0  0  0  0  0  0  0  0  0  0  0  0
   11.0263    5.5670    0.0000 C   0  0  0  0  0  0  0  0  0  0  0  0
    4.0981   -4.4330    0.0000 C   0  0  0  0  0  0  0  0  0  0  0  0
    5.0981   -6.1651    0.0000 C   0  0  0  0  0  0  0  0  0  0  0  0
    9.7942    2.7010    0.0000 C   0  0  0  0  0  0  0  0  0  0  0  0
    6.3301   -3.2990    0.0000 C   0  0  0  0  0  0  0  0  0  0  0  0
    8.0622    6.4330    0.0000 C   0  0  0  0  0  0  0  0  0  0  0  0
    8.9282   -6.7990    0.0000 C   0  0  0  0  0  0  0  0  0  0  0  0
    9.5622    5.5670    0.0000 C   0  0  0  0  0  0  0  0  0  0  0  0
    9.7942   -5.2990    0.0000 C   0  0  0  0  0  0  0  0  0  0  0  0
   12.3923    6.2010    0.0000 C   0  0  0  0  0  0  0  0  0  0  0  0
    2.8660   -5.2990    0.0000 C   0  0  0  0  0  0  0  0  0  0  0  0
   13.2583    4.7010    0.0000 C   0  0  0  0  0  0  0  0  0  0  0  0
    3.7320   -6.7990    0.0000 C   0  0  0  0  0  0  0  0  0  0  0  0
    8.5622    7.2990    0.0000 C   0  0  0  0  0  0  0  0  0  0  0  0
    9.7942   -7.2990    0.0000 C   0  0  0  0  0  0  0  0  0  0  0  0
   10.0622    6.4330    0.0000 C   0  0  0  0  0  0  0  0  0  0  0  0
   10.6603   -5.7990    0.0000 C   0  0  0  0  0  0  0  0  0  0  0  0
   13.2583    6.7010    0.0000 C   0  0  0  0  0  0  0  0  0  0  0  0
    2.0000   -5.7990    0.0000 C   0  0  0  0  0  0  0  0  0  0  0  0
   14.1244    5.2010    0.0000 C   0  0  0  0  0  0  0  0  0  0  0  0
    2.8660   -7.2990    0.0000 C   0  0  0  0  0  0  0  0  0  0  0  0
    9.5622    7.2990    0.0000 C   0  0  0  0  0  0  0  0  0  0  0  0
   10.6603   -6.7990    0.0000 C   0  0  0  0  0  0  0  0  0  0  0  0
   14.1244    6.2010    0.0000 C   0  0  0  0  0  0  0  0  0  0  0  0
    2.0000   -6.7990    0.0000 C   0  0  0  0  0  0  0  0  0  0  0  0
    9.1403   -0.3816    0.0000 H   0  0  0  0  0  0  0  0  0  0  0  0
    9.5388    0.3086    0.0000 H   0  0  0  0  0  0  0  0  0  0  0  0
    6.5856    0.3086    0.0000 H   0  0  0  0  0  0  0  0  0  0  0  0
    6.9841   -0.3816    0.0000 H   0  0  0  0  0  0  0  0  0  0  0  0
    9.5388   -0.9067    0.0000 H   0  0  0  0  0  0  0  0  0  0  0  0
    9.1403   -0.2164    0.0000 H   0  0  0  0  0  0  0  0  0  0  0  0
    6.9841   -0.2164    0.0000 H   0  0  0  0  0  0  0  0  0  0  0  0
    6.5856   -0.9067    0.0000 H   0  0  0  0  0  0  0  0  0  0  0  0
    9.7942    5.3210    0.0000 H   0  0  0  0  0  0  0  0  0  0  0  0
    6.3301   -5.9190    0.0000 H   0  0  0  0  0  0  0  0  0  0  0  0
    7.5062    5.7379    0.0000 H   0  0  0  0  0  0  0  0  0  0  0  0
    6.6592    5.5110    0.0000 H   0  0  0  0  0  0  0  0  0  0  0  0
    6.8862    4.6640    0.0000 H   0  0  0  0  0  0  0  0  0  0  0  0
    7.0252    4.1449    0.0000 H   0  0  0  0  0  0  0  0  0  0  0  0
    7.2522    3.2980    0.0000 H   0  0  0  0  0  0  0  0  0  0  0  0
    8.0991    3.5249    0.0000 H   0  0  0  0  0  0  0  0  0  0  0  0
    7.0252   -5.8551    0.0000 H   0  0  0  0  0  0  0  0  0  0  0  0
    7.2522   -6.7020    0.0000 H   0  0  0  0  0  0  0  0  0  0  0  0
    8.0991   -6.4751    0.0000 H   0  0  0  0  0  0  0  0  0  0  0  0
    9.0991   -4.7430    0.0000 H   0  0  0  0  0  0  0  0  0  0  0  0
    8.8722   -3.8961    0.0000 H   0  0  0  0  0  0  0  0  0  0  0  0
    8.0252   -4.1230    0.0000 H   0  0  0  0  0  0  0  0  0  0  0  0
   11.1972    2.8910    0.0000 H   0  0  0  0  0  0  0  0  0  0  0  0
    4.9272   -3.4890    0.0000 H   0  0  0  0  0  0  0  0  0  0  0  0
   11.4893    3.5249    0.0000 H   0  0  0  0  0  0  0  0  0  0  0  0
   12.3363    3.2980    0.0000 H   0  0  0  0  0  0  0  0  0  0  0  0
   12.5632    4.1449    0.0000 H   0  0  0  0  0  0  0  0  0  0  0  0
   11.5632    5.8770    0.0000 H   0  0  0  0  0  0  0  0  0  0  0  0
   10.7163    6.1039    0.0000 H   0  0  0  0  0  0  0  0  0  0  0  0
   10.4893    5.2570    0.0000 H   0  0  0  0  0  0  0  0  0  0  0  0
    4.6350   -4.1230    0.0000 H   0  0  0  0  0  0  0  0  0  0  0  0
    3.7881   -3.8961    0.0000 H   0  0  0  0  0  0  0  0  0  0  0  0
    3.5611   -4.7430    0.0000 H   0  0  0  0  0  0  0  0  0  0  0  0
    4.5611   -6.4751    0.0000 H   0  0  0  0  0  0  0  0  0  0  0  0
    5.4081   -6.7020    0.0000 H   0  0  0  0  0  0  0  0  0  0  0  0
    5.6350   -5.8551    0.0000 H   0  0  0  0  0  0  0  0  0  0  0  0
    9.7942    2.0810    0.0000 H   0  0  0  0  0  0  0  0  0  0  0  0
    6.3301   -2.6790    0.0000 H   0  0  0  0  0  0  0  0  0  0  0  0
    7.4422    6.4330    0.0000 H   0  0  0  0  0  0  0  0  0  0  0  0
    8.3913   -7.1090    0.0000 H   0  0  0  0  0  0  0  0  0  0  0  0
    9.8722    5.0300    0.0000 H   0  0  0  0  0  0  0  0  0  0  0  0
    9.7942   -4.6790    0.0000 H   0  0  0  0  0  0  0  0  0  0  0  0
   11.8554    6.5110    0.0000 H   0  0  0  0  0  0  0  0  0  0  0  0
    2.8660   -4.6790    0.0000 H   0  0  0  0  0  0  0  0  0  0  0  0
   13.2583    4.0810    0.0000 H   0  0  0  0  0  0  0  0  0  0  0  0
    4.2690   -7.1090    0.0000 H   0  0  0  0  0  0  0  0  0  0  0  0
    8.2522    7.8360    0.0000 H   0  0  0  0  0  0  0  0  0  0  0  0
    9.7942   -7.9190    0.0000 H   0  0  0  0  0  0  0  0  0  0  0  0
   10.6822    6.4330    0.0000 H   0  0  0  0  0  0  0  0  0  0  0  0
   11.1972   -5.4890    0.0000 H   0  0  0  0  0  0  0  0  0  0  0  0
   13.2583    7.3210    0.0000 H   0  0  0  0  0  0  0  0  0  0  0  0
    1.4631   -5.4890    0.0000 H   0  0  0  0  0  0  0  0  0  0  0  0
   14.6613    4.8910    0.0000 H   0  0  0  0  0  0  0  0  0  0  0  0
    2.8660   -7.9190    0.0000 H   0  0  0  0  0  0  0  0  0  0  0  0
    9.8722    7.8360    0.0000 H   0  0  0  0  0  0  0  0  0  0  0  0
   11.1972   -7.1090    0.0000 H   0  0  0  0  0  0  0  0  0  0  0  0
   14.6613    6.5110    0.0000 H   0  0  0  0  0  0  0  0  0  0  0  0
    1.4631   -7.1090    0.0000 H   0  0  0  0  0  0  0  0  0  0  0  0
  1  3  1  0  0  0  0
  1  4  1  0  0  0  0
  1  7  1  0  0  0  0
  2  5  1  0  0  0  0
  2  6  1  0  0  0  0
  2  8  1  0  0  0  0
  3 10  1  0  0  0  0
  4 11  1  0  0  0  0
  5 12  1  0  0  0  0
  6 13  1  0  0  0  0
  7 22  1  0  0  0  0
  8 23  1  0  0  0  0
  9 10  1  0  0  0  0
  9 11  1  0  0  0  0
  9 12  1  0  0  0  0
  9 13  1  0  0  0  0
 10 62  1  0  0  0  0
 10 63  1  0  0  0  0
 11 64  1  0  0  0  0
 11 65  1  0  0  0  0
 12 66  1  0  0  0  0
 12 67  1  0  0  0  0
 13 68  1  0  0  0  0
 13 69  1  0  0  0  0
 14 18  1  0  0  0  0
 14 26  1  0  0  0  0
 14 28  1  0  0  0  0
 14 29  1  0  0  0  0
 15 19  1  0  0  0  0
 15 27  1  0  0  0  0
 15 30  1  0  0  0  0
 15 31  1  0  0  0  0
 16 20  1  0  0  0  0
 16 32  1  0  0  0  0
 16 36  1  0  0  0  0
 16 37  1  0  0  0  0
 17 21  1  0  0  0  0
 17 33  1  0  0  0  0
 17 38  1  0  0  0  0
 17 39  1  0  0  0  0
 18 22  2  0  0  0  0
 18 24  1  0  0  0  0
 19 23  2  0  0  0  0
 19 25  1  0  0  0  0
 20 24  2  0  0  0  0
 20 34  1  0  0  0  0
 21 25  2  0  0  0  0
 21 35  1  0  0  0  0
 22 40  1  0  0  0  0
 23 41  1  0  0  0  0
 24 70  1  0  0  0  0
 25 71  1  0  0  0  0
 26 42  2  0  0  0  0
 26 44  1  0  0  0  0
 27 43  2  0  0  0  0
 27 45  1  0  0  0  0
 28 72  1  0  0  0  0
 28 73  1  0  0  0  0
 28 74  1  0  0  0  0
 29 75  1  0  0  0  0
 29 76  1  0  0  0  0
 29 77  1  0  0  0  0
 30 78  1  0  0  0  0
 30 79  1  0  0  0  0
 30 80  1  0  0  0  0
 31 81  1  0  0  0  0
 31 82  1  0  0  0  0
 31 83  1  0  0  0  0
 32 46  2  0  0  0  0
 32 48  1  0  0  0  0
 33 47  2  0  0  0  0
 33 49  1  0  0  0  0
 34 40  2  0  0  0  0
 34 84  1  0  0  0  0
 35 41  2  0  0  0  0
 35 85  1  0  0  0  0
 36 86  1  0  0  0  0
 36 87  1  0  0  0  0
 36 88  1  0  0  0  0
 37 89  1  0  0  0  0
 37 90  1  0  0  0  0
 37 91  1  0  0  0  0
 38 92  1  0  0  0  0
 38 93  1  0  0  0  0
 38 94  1  0  0  0  0
 39 95  1  0  0  0  0
 39 96  1  0  0  0  0
 39 97  1  0  0  0  0
 40 98  1  0  0  0  0
 41 99  1  0  0  0  0
 42 50  1  0  0  0  0
 42100  1  0  0  0  0
 43 51  1  0  0  0  0
 43101  1  0  0  0  0
 44 52  2  0  0  0  0
 44102  1  0  0  0  0
 45 53  2  0  0  0  0
 45103  1  0  0  0  0
 46 54  1  0  0  0  0
 46104  1  0  0  0  0
 47 55  1  0  0  0  0
 47105  1  0  0  0  0
 48 56  2  0  0  0  0
 48106  1  0  0  0  0
 49 57  2  0  0  0  0
 49107  1  0  0  0  0
 50 58  2  0  0  0  0
 50108  1  0  0  0  0
 51 59  2  0  0  0  0
 51109  1  0  0  0  0
 52 58  1  0  0  0  0
 52110  1  0  0  0  0
 53 59  1  0  0  0  0
 53111  1  0  0  0  0
 54 60  2  0  0  0  0
 54112  1  0  0  0  0
 55 61  2  0  0  0  0
 55113  1  0  0  0  0
 56 60  1  0  0  0  0
 56114  1  0  0  0  0
 57 61  1  0  0  0  0
 57115  1  0  0  0  0
 58116  1  0  0  0  0
 59117  1  0  0  0  0
 60118  1  0  0  0  0
 61119  1  0  0  0  0
M  END
> <PUBCHEM_COMPOUND_CID>
164499

> <PUBCHEM_COMPOUND_CANONICALIZED>
1

> <PUBCHEM_CACTVS_COMPLEXITY>
1240

> <PUBCHEM_CACTVS_HBOND_ACCEPTOR>
6

> <PUBCHEM_CACTVS_HBOND_DONOR>
0

> <PUBCHEM_CACTVS_ROTATABLE_BOND>
12

> <PUBCHEM_CACTVS_SUBSKEYS>
AAADcfB8OAMAAAAAAAAAAAAAAAAAAAAAAAA0aMGDAAAAAAABVAAAGgAAACAADgSgmAIyBoAAARCAAiBCAAACAAAgIAAIiAAGCIgIJiKAERKAMAAlwBEIiAeAwPAPoAACAAAIAABAAAQAABAAAAAAAAAAAA==

> <PUBCHEM_IUPAC_OPENEYE_NAME>
3,9-bis[2,4-bis(1-methyl-1-phenyl-ethyl)phenoxy]-2,4,8,10-tetraoxa-3,9-diphosphaspiro[5.5]undecane

> <PUBCHEM_IUPAC_CAS_NAME>
3,9-bis[2,4-bis(2-phenylpropan-2-yl)phenoxy]-2,4,8,10-tetraoxa-3,9-diphosphaspiro[5.5]undecane

> <PUBCHEM_IUPAC_NAME_MARKUP>
3,9-bis[2,4-bis(2-phenylpropan-2-yl)phenoxy]-2,4,8,10-tetraoxa-3,9-diphosphaspiro[5.5]undecane

> <PUBCHEM_IUPAC_NAME>
3,9-bis[2,4-bis(2-phenylpropan-2-yl)phenoxy]-2,4,8,10-tetraoxa-3,9-diphosphaspiro[5.5]undecane

> <PUBCHEM_IUPAC_SYSTEMATIC_NAME>
3,9-bis[2,4-bis(2-phenylpropan-2-yl)phenoxy]-2,4,8,10-tetraoxa-3,9-diphosphaspiro[5.5]undecane

> <PUBCHEM_IUPAC_TRADITIONAL_NAME>
3,9-bis(2,4-dicumylphenoxy)-2,4,8,10-tetraoxa-3,9-diphosphaspiro[5.5]undecane

> <PUBCHEM_IUPAC_INCHI>
InChI=1S/C53H58O6P2/c1-49(2,39-21-13-9-14-22-39)43-29-31-47(45(33-43)51(5,6)41-25-17-11-18-26-41)58-60-54-35-53(36-55-60)37-56-61(57-38-53)59-48-32-30-44(50(3,4)40-23-15-10-16-24-40)34-46(48)52(7,8)42-27-19-12-20-28-42/h9-34H,35-38H2,1-8H3

> <PUBCHEM_IUPAC_INCHIKEY>
WBWXVCMXGYSMQA-UHFFFAOYSA-N

> <PUBCHEM_XLOGP3_AA>
14.4

> <PUBCHEM_EXACT_MASS>
852.37086356

> <PUBCHEM_MOLECULAR_FORMULA>
C53H58O6P2

> <PUBCHEM_MOLECULAR_WEIGHT>
853.0

> <PUBCHEM_SMILES>
CC(C)(C1=CC=CC=C1)C2=CC(=C(C=C2)OP3OCC4(CO3)COP(OC4)OC5=C(C=C(C=C5)C(C)(C)C6=CC=CC=C6)C(C)(C)C7=CC=CC=C7)C(C)(C)C8=CC=CC=C8

> <PUBCHEM_OPENEYE_CAN_SMILES>
CC(C)(C1=CC=CC=C1)C2=CC(=C(C=C2)OP3OCC4(CO3)COP(OC4)OC5=C(C=C(C=C5)C(C)(C)C6=CC=CC=C6)C(C)(C)C7=CC=CC=C7)C(C)(C)C8=CC=CC=C8

> <PUBCHEM_OPENEYE_ISO_SMILES>
CC(C)(C1=CC=CC=C1)C2=CC(=C(C=C2)OP3OCC4(CO3)COP(OC4)OC5=C(C=C(C=C5)C(C)(C)C6=CC=CC=C6)C(C)(C)C7=CC=CC=C7)C(C)(C)C8=CC=CC=C8

> <PUBCHEM_CACTVS_TPSA>
55.4

> <PUBCHEM_MONOISOTOPIC_WEIGHT>
852.37086356

> <PUBCHEM_TOTAL_CHARGE>
0

> <PUBCHEM_HEAVY_ATOM_COUNT>
61

> <PUBCHEM_ATOM_DEF_STEREO_COUNT>
0

> <PUBCHEM_ATOM_UDEF_STEREO_COUNT>
0

> <PUBCHEM_BOND_DEF_STEREO_COUNT>
0

> <PUBCHEM_BOND_UDEF_STEREO_COUNT>
0

> <PUBCHEM_ISOTOPIC_ATOM_COUNT>
0

> <PUBCHEM_COMPONENT_COUNT>
1

> <PUBCHEM_CACTVS_TAUTO_COUNT>
-1

> <PUBCHEM_COORDINATE_TYPE>
1
5
255

> <PUBCHEM_BONDANNOTATIONS>
18  22  8
18  24  8
19  23  8
19  25  8
20  24  8
20  34  8
21  25  8
21  35  8
22  40  8
23  41  8
26  42  8
26  44  8
27  43  8
27  45  8
32  46  8
32  48  8
33  47  8
33  49  8
34  40  8
35  41  8
42  50  8
43  51  8
44  52  8
45  53  8
46  54  8
47  55  8
48  56  8
49  57  8
50  58  8
51  59  8
52  58  8
53  59  8
54  60  8
55  61  8
56  60  8
57  61  8

$$$$
