166635
  -OEChem-04042505482D

  9  5  0     0  0  0  0  0  0999 V2000
    2.0000   -1.2015    0.0000 Cu  0  2  0  0  0  0  0  0  0  0  0  0
    4.5000    0.6645    0.0000 Cu  0  2  0  0  0  0  0  0  0  0  0  0
    3.0000   -0.2015    0.0000 P   0  0  0  0  0  0  0  0  0  0  0  0
    2.0000   -0.2015    0.0000 O   0  5  0  0  0  0  0  0  0  0  0  0
    3.0000   -1.2015    0.0000 O   0  5  0  0  0  0  0  0  0  0  0  0
    4.0000   -0.2015    0.0000 O   0  5  0  0  0  0  0  0  0  0  0  0
    3.0000    0.7985    0.0000 O   0  0  0  0  0  0  0  0  0  0  0  0
    5.5000    0.6645    0.0000 O   0  5  0  0  0  0  0  0  0  0  0  0
    5.8100    1.2015    0.0000 H   0  0  0  0  0  0  0  0  0  0  0  0
  3  4  1  0  0  0  0
  3  5  1  0  0  0  0
  3  6  1  0  0  0  0
  3  7  2  0  0  0  0
  8  9  1  0  0  0  0
M  CHG  6   1   2   2   2   4  -1   5  -1   6  -1   8  -1
M  END
> <PUBCHEM_COMPOUND_CID>
166635

> <PUBCHEM_COMPOUND_CANONICALIZED>
1

> <PUBCHEM_CACTVS_COMPLEXITY>
36.8

> <PUBCHEM_CACTVS_HBOND_ACCEPTOR>
5

> <PUBCHEM_CACTVS_HBOND_DONOR>
1

> <PUBCHEM_CACTVS_ROTATABLE_BOND>
0

> <PUBCHEM_CACTVS_SUBSKEYS>
AAADcQAAOAIAAAAEAAAAAAAAAAAAAAAAAAAAAAAAAAAAAAAAAAAAAAAACCAAAAAAAAAAAAAAABAAQAAAAIAAAAAAAAAAAAAAAAAAAAAAAAAAAAAAAAAAAAAAAAAAAAAAAAAAAAAAAAAAAAAAAAAAAAAAAA==

> <PUBCHEM_IUPAC_OPENEYE_NAME>
dicopper;hydroxide;phosphate

> <PUBCHEM_IUPAC_CAS_NAME>
dicopper;hydroxide;phosphate

> <PUBCHEM_IUPAC_NAME_MARKUP>
dicopper;hydroxide;phosphate

> <PUBCHEM_IUPAC_NAME>
dicopper;hydroxide;phosphate

> <PUBCHEM_IUPAC_SYSTEMATIC_NAME>
dicopper;hydroxide;phosphate

> <PUBCHEM_IUPAC_TRADITIONAL_NAME>
dicupric;hydroxide;phosphate

> <PUBCHEM_IUPAC_INCHI>
InChI=1S/2Cu.H3O4P.H2O/c;;1-5(2,3)4;/h;;(H3,1,2,3,4);1H2/q2*+2;;/p-4

> <PUBCHEM_IUPAC_INCHIKEY>
WCMHCPWEQCWRSR-UHFFFAOYSA-J

> <PUBCHEM_EXACT_MASS>
237.815354

> <PUBCHEM_MOLECULAR_FORMULA>
Cu2HO5P

> <PUBCHEM_MOLECULAR_WEIGHT>
239.07

> <PUBCHEM_SMILES>
[OH-].[O-]P(=O)([O-])[O-].[Cu+2].[Cu+2]

> <PUBCHEM_OPENEYE_CAN_SMILES>
[OH-].[O-]P(=O)([O-])[O-].[Cu+2].[Cu+2]

> <PUBCHEM_OPENEYE_ISO_SMILES>
[OH-].[O-]P(=O)([O-])[O-].[Cu+2].[Cu+2]

> <PUBCHEM_CACTVS_TPSA>
87.3

> <PUBCHEM_MONOISOTOPIC_WEIGHT>
237.815354

> <PUBCHEM_TOTAL_CHARGE>
0

> <PUBCHEM_HEAVY_ATOM_COUNT>
8

> <PUBCHEM_ATOM_DEF_STEREO_COUNT>
0

> <PUBCHEM_ATOM_UDEF_STEREO_COUNT>
0

> <PUBCHEM_BOND_DEF_STEREO_COUNT>
0

> <PUBCHEM_BOND_UDEF_STEREO_COUNT>
0

> <PUBCHEM_ISOTOPIC_ATOM_COUNT>
0

> <PUBCHEM_COMPONENT_COUNT>
4

> <PUBCHEM_CACTVS_TAUTO_COUNT>
-1

> <PUBCHEM_COORDINATE_TYPE>
1
5
255

$$$$
