16683993
  -OEChem-04042512322D

 56 56  0     0  0  0  0  0  0999 V2000
    7.1962   -1.0670    0.0000 Al  0  4  0  0  0  0  0  0  0  0  0  0
    6.3301   -1.5670    0.0000 O   0  0  0  0  0  0  0  0  0  0  0  0
    7.1962   -0.0670    0.0000 O   0  0  0  0  0  0  0  0  0  0  0  0
    7.1962   -3.0670    0.0000 O   0  0  0  0  0  0  0  0  0  0  0  0
    8.9282   -0.0670    0.0000 O   0  0  0  0  0  0  0  0  0  0  0  0
    8.0622   -1.5670    0.0000 O   0  0  0  0  0  0  0  0  0  0  0  0
    2.8660   -4.5670    0.0000 C   0  0  0  0  0  0  0  0  0  0  0  0
    8.0622    4.4330    0.0000 C   0  0  0  0  0  0  0  0  0  0  0  0
    3.7320   -4.0670    0.0000 C   0  0  0  0  0  0  0  0  0  0  0  0
    8.0622    3.4330    0.0000 C   0  0  0  0  0  0  0  0  0  0  0  0
    2.0000   -5.0670    0.0000 C   0  0  0  0  0  0  0  0  0  0  0  0
    3.3660   -5.4330    0.0000 C   0  0  0  0  0  0  0  0  0  0  0  0
    2.3660   -3.7010    0.0000 C   0  0  0  0  0  0  0  0  0  0  0  0
    8.0622    5.4330    0.0000 C   0  0  0  0  0  0  0  0  0  0  0  0
    9.0622    4.4330    0.0000 C   0  0  0  0  0  0  0  0  0  0  0  0
    7.0622    4.4330    0.0000 C   0  0  0  0  0  0  0  0  0  0  0  0
    3.7320   -3.0670    0.0000 C   0  0  0  0  0  0  0  0  0  0  0  0
    8.9282    2.9330    0.0000 C   0  0  0  0  0  0  0  0  0  0  0  0
    4.5981   -4.5670    0.0000 C   0  0  0  0  0  0  0  0  0  0  0  0
    7.1962    2.9330    0.0000 C   0  0  0  0  0  0  0  0  0  0  0  0
    4.5981   -2.5670    0.0000 C   0  0  0  0  0  0  0  0  0  0  0  0
    8.9282    1.9330    0.0000 C   0  0  0  0  0  0  0  0  0  0  0  0
    5.4641   -4.0670    0.0000 C   0  0  0  0  0  0  0  0  0  0  0  0
    7.1962    1.9330    0.0000 C   0  0  0  0  0  0  0  0  0  0  0  0
    5.4641   -3.0670    0.0000 C   0  0  0  0  0  0  0  0  0  0  0  0
    8.0622    1.4330    0.0000 C   0  0  0  0  0  0  0  0  0  0  0  0
    6.3301   -2.5670    0.0000 C   0  0  0  0  0  0  0  0  0  0  0  0
    8.0622    0.4330    0.0000 C   0  0  0  0  0  0  0  0  0  0  0  0
    1.6900   -4.5300    0.0000 H   0  0  0  0  0  0  0  0  0  0  0  0
    1.4631   -5.3770    0.0000 H   0  0  0  0  0  0  0  0  0  0  0  0
    2.3100   -5.6039    0.0000 H   0  0  0  0  0  0  0  0  0  0  0  0
    2.8291   -5.7430    0.0000 H   0  0  0  0  0  0  0  0  0  0  0  0
    3.6760   -5.9700    0.0000 H   0  0  0  0  0  0  0  0  0  0  0  0
    3.9030   -5.1230    0.0000 H   0  0  0  0  0  0  0  0  0  0  0  0
    2.9030   -3.3910    0.0000 H   0  0  0  0  0  0  0  0  0  0  0  0
    2.0560   -3.1640    0.0000 H   0  0  0  0  0  0  0  0  0  0  0  0
    1.8291   -4.0110    0.0000 H   0  0  0  0  0  0  0  0  0  0  0  0
    8.6822    5.4330    0.0000 H   0  0  0  0  0  0  0  0  0  0  0  0
    8.0622    6.0530    0.0000 H   0  0  0  0  0  0  0  0  0  0  0  0
    7.4422    5.4330    0.0000 H   0  0  0  0  0  0  0  0  0  0  0  0
    9.0622    3.8130    0.0000 H   0  0  0  0  0  0  0  0  0  0  0  0
    9.6822    4.4330    0.0000 H   0  0  0  0  0  0  0  0  0  0  0  0
    9.0622    5.0530    0.0000 H   0  0  0  0  0  0  0  0  0  0  0  0
    7.0622    5.0530    0.0000 H   0  0  0  0  0  0  0  0  0  0  0  0
    6.4422    4.4330    0.0000 H   0  0  0  0  0  0  0  0  0  0  0  0
    7.0622    3.8130    0.0000 H   0  0  0  0  0  0  0  0  0  0  0  0
    3.1951   -2.7570    0.0000 H   0  0  0  0  0  0  0  0  0  0  0  0
    9.4651    3.2430    0.0000 H   0  0  0  0  0  0  0  0  0  0  0  0
    4.5981   -5.1870    0.0000 H   0  0  0  0  0  0  0  0  0  0  0  0
    6.6592    3.2430    0.0000 H   0  0  0  0  0  0  0  0  0  0  0  0
    4.5981   -1.9470    0.0000 H   0  0  0  0  0  0  0  0  0  0  0  0
    9.4651    1.6230    0.0000 H   0  0  0  0  0  0  0  0  0  0  0  0
    6.0010   -4.3770    0.0000 H   0  0  0  0  0  0  0  0  0  0  0  0
    6.6592    1.6230    0.0000 H   0  0  0  0  0  0  0  0  0  0  0  0
    8.0622   -2.1870    0.0000 H   0  0  0  0  0  0  0  0  0  0  0  0
    8.5991   -1.2570    0.0000 H   0  0  0  0  0  0  0  0  0  0  0  0
  1  2  1  0  0  0  0
  1  3  1  0  0  0  0
  2 27  1  0  0  0  0
  3 28  1  0  0  0  0
  4 27  2  0  0  0  0
  5 28  2  0  0  0  0
  6 55  1  0  0  0  0
  6 56  1  0  0  0  0
  7  9  1  0  0  0  0
  7 11  1  0  0  0  0
  7 12  1  0  0  0  0
  7 13  1  0  0  0  0
  8 10  1  0  0  0  0
  8 14  1  0  0  0  0
  8 15  1  0  0  0  0
  8 16  1  0  0  0  0
  9 17  2  0  0  0  0
  9 19  1  0  0  0  0
 10 18  2  0  0  0  0
 10 20  1  0  0  0  0
 11 29  1  0  0  0  0
 11 30  1  0  0  0  0
 11 31  1  0  0  0  0
 12 32  1  0  0  0  0
 12 33  1  0  0  0  0
 12 34  1  0  0  0  0
 13 35  1  0  0  0  0
 13 36  1  0  0  0  0
 13 37  1  0  0  0  0
 14 38  1  0  0  0  0
 14 39  1  0  0  0  0
 14 40  1  0  0  0  0
 15 41  1  0  0  0  0
 15 42  1  0  0  0  0
 15 43  1  0  0  0  0
 16 44  1  0  0  0  0
 16 45  1  0  0  0  0
 16 46  1  0  0  0  0
 17 21  1  0  0  0  0
 17 47  1  0  0  0  0
 18 22  1  0  0  0  0
 18 48  1  0  0  0  0
 19 23  2  0  0  0  0
 19 49  1  0  0  0  0
 20 24  2  0  0  0  0
 20 50  1  0  0  0  0
 21 25  2  0  0  0  0
 21 51  1  0  0  0  0
 22 26  2  0  0  0  0
 22 52  1  0  0  0  0
 23 25  1  0  0  0  0
 23 53  1  0  0  0  0
 24 26  1  0  0  0  0
 24 54  1  0  0  0  0
 25 27  1  0  0  0  0
 26 28  1  0  0  0  0
M  RAD  1   1   2
M  END
> <PUBCHEM_COMPOUND_CID>
16683993

> <PUBCHEM_COMPOUND_CANONICALIZED>
1

> <PUBCHEM_CACTVS_COMPLEXITY>
458

> <PUBCHEM_CACTVS_HBOND_ACCEPTOR>
5

> <PUBCHEM_CACTVS_HBOND_DONOR>
1

> <PUBCHEM_CACTVS_ROTATABLE_BOND>
8

> <PUBCHEM_CACTVS_SUBSKEYS>
AAADceB4OAAAABAAAAAAAAAAAAAAAAAAAAAwYAAAAAAAAAABQAAAGgAACIAADgCAmAAyCIAAAACIAiDSCAACAAAkAAAIiAEACMgIJjKAFRCAMQAkwAEIiYeIyPCPwAAAAAAAAACAAAAAAAAAAAAAAAAAAA==

> <PUBCHEM_IUPAC_INCHI>
InChI=1S/2C11H14O2.Al.H2O/c2*1-11(2,3)9-6-4-8(5-7-9)10(12)13;;/h2*4-7H,1-3H3,(H,12,13);;1H2/q;;+2;/p-2

> <PUBCHEM_IUPAC_INCHIKEY>
KCXQZTKOKSWXHY-UHFFFAOYSA-L

> <PUBCHEM_EXACT_MASS>
399.1752124

> <PUBCHEM_MOLECULAR_FORMULA>
C22H28AlO5

> <PUBCHEM_MOLECULAR_WEIGHT>
399.4

> <PUBCHEM_SMILES>
CC(C)(C)C1=CC=C(C=C1)C(=O)O[Al]OC(=O)C2=CC=C(C=C2)C(C)(C)C.O

> <PUBCHEM_OPENEYE_CAN_SMILES>
CC(C)(C)C1=CC=C(C=C1)C(=O)O[Al]OC(=O)C2=CC=C(C=C2)C(C)(C)C.O

> <PUBCHEM_OPENEYE_ISO_SMILES>
CC(C)(C)C1=CC=C(C=C1)C(=O)O[Al]OC(=O)C2=CC=C(C=C2)C(C)(C)C.O

> <PUBCHEM_CACTVS_TPSA>
53.6

> <PUBCHEM_MONOISOTOPIC_WEIGHT>
399.1752124

> <PUBCHEM_TOTAL_CHARGE>
0

> <PUBCHEM_HEAVY_ATOM_COUNT>
28

> <PUBCHEM_ATOM_DEF_STEREO_COUNT>
0

> <PUBCHEM_ATOM_UDEF_STEREO_COUNT>
0

> <PUBCHEM_BOND_DEF_STEREO_COUNT>
0

> <PUBCHEM_BOND_UDEF_STEREO_COUNT>
0

> <PUBCHEM_ISOTOPIC_ATOM_COUNT>
0

> <PUBCHEM_COMPONENT_COUNT>
2

> <PUBCHEM_CACTVS_TAUTO_COUNT>
-1

> <PUBCHEM_NONSTANDARDBOND>
1  6  6

> <PUBCHEM_COORDINATE_TYPE>
1
5
255

> <PUBCHEM_BONDANNOTATIONS>
10  18  8
10  20  8
17  21  8
18  22  8
19  23  8
20  24  8
21  25  8
22  26  8
23  25  8
24  26  8
9  17  8
9  19  8

$$$$
