16684161
  -OEChem-04042505492D

121120  0     1  0  0  0  0  0999 V2000
   12.3923    0.0000    0.0000 Sn  0  0  0  0  0  0  0  0  0  0  0  0
   13.2583    0.5000    0.0000 O   0  0  0  0  0  0  0  0  0  0  0  0
   11.5263   -0.5000    0.0000 O   0  0  0  0  0  0  0  0  0  0  0  0
   17.5885   -0.0000    0.0000 O   0  0  0  0  0  0  0  0  0  0  0  0
    7.1962   -0.0000    0.0000 O   0  0  0  0  0  0  0  0  0  0  0  0
   14.1244   -1.0000    0.0000 O   0  0  0  0  0  0  0  0  0  0  0  0
   10.6603    1.0000    0.0000 O   0  0  0  0  0  0  0  0  0  0  0  0
   16.7224    1.5000    0.0000 O   0  0  0  0  0  0  0  0  0  0  0  0
    8.0622   -1.5000    0.0000 O   0  0  0  0  0  0  0  0  0  0  0  0
   11.8923    0.8660    0.0000 C   0  0  0  0  0  0  0  0  0  0  0  0
   12.8923   -0.8660    0.0000 C   0  0  0  0  0  0  0  0  0  0  0  0
   12.3923    1.7320    0.0000 C   0  0  0  0  0  0  0  0  0  0  0  0
   12.3923   -1.7320    0.0000 C   0  0  0  0  0  0  0  0  0  0  0  0
   11.8923    2.5981    0.0000 C   0  0  0  0  0  0  0  0  0  0  0  0
   12.8923   -2.5981    0.0000 C   0  0  0  0  0  0  0  0  0  0  0  0
   12.3923    3.4641    0.0000 C   0  0  0  0  0  0  0  0  0  0  0  0
   12.3923   -3.4641    0.0000 C   0  0  0  0  0  0  0  0  0  0  0  0
   11.8923    4.3301    0.0000 C   0  0  0  0  0  0  0  0  0  0  0  0
   12.8923   -4.3301    0.0000 C   0  0  0  0  0  0  0  0  0  0  0  0
   12.3923    5.1962    0.0000 C   0  0  0  0  0  0  0  0  0  0  0  0
   12.3923   -5.1962    0.0000 C   0  0  0  0  0  0  0  0  0  0  0  0
   19.3205   -0.0000    0.0000 C   0  0  3  0  0  0  0  0  0  0  0  0
    5.4641   -0.0000    0.0000 C   0  0  3  0  0  0  0  0  0  0  0  0
   20.1865    0.5000    0.0000 C   0  0  0  0  0  0  0  0  0  0  0  0
    4.5981   -0.5000    0.0000 C   0  0  0  0  0  0  0  0  0  0  0  0
   11.8923    6.0622    0.0000 C   0  0  0  0  0  0  0  0  0  0  0  0
   12.8923   -6.0622    0.0000 C   0  0  0  0  0  0  0  0  0  0  0  0
   14.1244    0.0000    0.0000 C   0  0  0  0  0  0  0  0  0  0  0  0
   10.6603   -0.0000    0.0000 C   0  0  0  0  0  0  0  0  0  0  0  0
   19.3205   -1.0000    0.0000 C   0  0  0  0  0  0  0  0  0  0  0  0
    5.4641    1.0000    0.0000 C   0  0  0  0  0  0  0  0  0  0  0  0
   21.0526   -0.0000    0.0000 C   0  0  0  0  0  0  0  0  0  0  0  0
    3.7320   -0.0000    0.0000 C   0  0  0  0  0  0  0  0  0  0  0  0
   18.4545    0.5000    0.0000 C   0  0  0  0  0  0  0  0  0  0  0  0
    6.3301   -0.5000    0.0000 C   0  0  0  0  0  0  0  0  0  0  0  0
   21.9186    0.5000    0.0000 C   0  0  0  0  0  0  0  0  0  0  0  0
    2.8660   -0.5000    0.0000 C   0  0  0  0  0  0  0  0  0  0  0  0
   12.3923    6.9282    0.0000 C   0  0  0  0  0  0  0  0  0  0  0  0
   12.3923   -6.9282    0.0000 C   0  0  0  0  0  0  0  0  0  0  0  0
   14.9904    0.5000    0.0000 C   0  0  0  0  0  0  0  0  0  0  0  0
    9.7942   -0.5000    0.0000 C   0  0  0  0  0  0  0  0  0  0  0  0
   20.1865   -1.5000    0.0000 C   0  0  0  0  0  0  0  0  0  0  0  0
    4.5981    1.5000    0.0000 C   0  0  0  0  0  0  0  0  0  0  0  0
   22.7846   -0.0000    0.0000 C   0  0  0  0  0  0  0  0  0  0  0  0
    2.0000   -0.0000    0.0000 C   0  0  0  0  0  0  0  0  0  0  0  0
   15.8564   -0.0000    0.0000 C   0  0  0  0  0  0  0  0  0  0  0  0
    8.9282   -0.0000    0.0000 C   0  0  0  0  0  0  0  0  0  0  0  0
   16.7224    0.5000    0.0000 C   0  0  0  0  0  0  0  0  0  0  0  0
    8.0622   -0.5000    0.0000 C   0  0  0  0  0  0  0  0  0  0  0  0
   11.4174    1.2646    0.0000 H   0  0  0  0  0  0  0  0  0  0  0  0
   11.4174    0.4675    0.0000 H   0  0  0  0  0  0  0  0  0  0  0  0
   13.3673   -1.2646    0.0000 H   0  0  0  0  0  0  0  0  0  0  0  0
   13.3673   -0.4675    0.0000 H   0  0  0  0  0  0  0  0  0  0  0  0
   12.8673    1.3335    0.0000 H   0  0  0  0  0  0  0  0  0  0  0  0
   12.8673    2.1306    0.0000 H   0  0  0  0  0  0  0  0  0  0  0  0
   11.9174   -1.3335    0.0000 H   0  0  0  0  0  0  0  0  0  0  0  0
   11.9174   -2.1306    0.0000 H   0  0  0  0  0  0  0  0  0  0  0  0
   11.4174    2.9966    0.0000 H   0  0  0  0  0  0  0  0  0  0  0  0
   11.4174    2.1996    0.0000 H   0  0  0  0  0  0  0  0  0  0  0  0
   13.3673   -2.9966    0.0000 H   0  0  0  0  0  0  0  0  0  0  0  0
   13.3673   -2.1996    0.0000 H   0  0  0  0  0  0  0  0  0  0  0  0
   12.8673    3.0656    0.0000 H   0  0  0  0  0  0  0  0  0  0  0  0
   12.8673    3.8626    0.0000 H   0  0  0  0  0  0  0  0  0  0  0  0
   11.9174   -3.0656    0.0000 H   0  0  0  0  0  0  0  0  0  0  0  0
   11.9174   -3.8626    0.0000 H   0  0  0  0  0  0  0  0  0  0  0  0
   11.4174    4.7287    0.0000 H   0  0  0  0  0  0  0  0  0  0  0  0
   11.4174    3.9316    0.0000 H   0  0  0  0  0  0  0  0  0  0  0  0
   13.3673   -4.7287    0.0000 H   0  0  0  0  0  0  0  0  0  0  0  0
   13.3673   -3.9316    0.0000 H   0  0  0  0  0  0  0  0  0  0  0  0
   12.8673    4.7976    0.0000 H   0  0  0  0  0  0  0  0  0  0  0  0
   12.8673    5.5947    0.0000 H   0  0  0  0  0  0  0  0  0  0  0  0
   11.9174   -4.7976    0.0000 H   0  0  0  0  0  0  0  0  0  0  0  0
   11.9174   -5.5947    0.0000 H   0  0  0  0  0  0  0  0  0  0  0  0
   19.8574   -0.3100    0.0000 H   0  0  0  0  0  0  0  0  0  0  0  0
    5.4641   -0.6200    0.0000 H   0  0  0  0  0  0  0  0  0  0  0  0
   20.5851    0.9749    0.0000 H   0  0  0  0  0  0  0  0  0  0  0  0
   19.7880    0.9749    0.0000 H   0  0  0  0  0  0  0  0  0  0  0  0
    4.1996   -0.9749    0.0000 H   0  0  0  0  0  0  0  0  0  0  0  0
    4.9966   -0.9749    0.0000 H   0  0  0  0  0  0  0  0  0  0  0  0
   11.4174    6.4607    0.0000 H   0  0  0  0  0  0  0  0  0  0  0  0
   11.4174    5.6636    0.0000 H   0  0  0  0  0  0  0  0  0  0  0  0
   13.3673   -6.4607    0.0000 H   0  0  0  0  0  0  0  0  0  0  0  0
   13.3673   -5.6636    0.0000 H   0  0  0  0  0  0  0  0  0  0  0  0
   18.7099   -0.8923    0.0000 H   0  0  0  0  0  0  0  0  0  0  0  0
   19.1085   -1.5826    0.0000 H   0  0  0  0  0  0  0  0  0  0  0  0
    6.0747    0.8923    0.0000 H   0  0  0  0  0  0  0  0  0  0  0  0
    5.6762    1.5826    0.0000 H   0  0  0  0  0  0  0  0  0  0  0  0
   20.6540   -0.4749    0.0000 H   0  0  0  0  0  0  0  0  0  0  0  0
   21.4511   -0.4749    0.0000 H   0  0  0  0  0  0  0  0  0  0  0  0
    4.1306    0.4749    0.0000 H   0  0  0  0  0  0  0  0  0  0  0  0
    3.3335    0.4749    0.0000 H   0  0  0  0  0  0  0  0  0  0  0  0
   18.8530    0.9749    0.0000 H   0  0  0  0  0  0  0  0  0  0  0  0
   18.0560    0.9749    0.0000 H   0  0  0  0  0  0  0  0  0  0  0  0
    5.9316   -0.9749    0.0000 H   0  0  0  0  0  0  0  0  0  0  0  0
    6.7287   -0.9749    0.0000 H   0  0  0  0  0  0  0  0  0  0  0  0
   22.3171    0.9749    0.0000 H   0  0  0  0  0  0  0  0  0  0  0  0
   21.5201    0.9749    0.0000 H   0  0  0  0  0  0  0  0  0  0  0  0
    2.4675   -0.9749    0.0000 H   0  0  0  0  0  0  0  0  0  0  0  0
    3.2646   -0.9749    0.0000 H   0  0  0  0  0  0  0  0  0  0  0  0
   12.9292    6.6182    0.0000 H   0  0  0  0  0  0  0  0  0  0  0  0
   12.7023    7.4651    0.0000 H   0  0  0  0  0  0  0  0  0  0  0  0
   11.8554    7.2382    0.0000 H   0  0  0  0  0  0  0  0  0  0  0  0
   11.8554   -6.6182    0.0000 H   0  0  0  0  0  0  0  0  0  0  0  0
   12.0823   -7.4651    0.0000 H   0  0  0  0  0  0  0  0  0  0  0  0
   12.9292   -7.2382    0.0000 H   0  0  0  0  0  0  0  0  0  0  0  0
   19.8765   -2.0369    0.0000 H   0  0  0  0  0  0  0  0  0  0  0  0
   20.7235   -1.8100    0.0000 H   0  0  0  0  0  0  0  0  0  0  0  0
   20.4965   -0.9631    0.0000 H   0  0  0  0  0  0  0  0  0  0  0  0
    4.9081    2.0369    0.0000 H   0  0  0  0  0  0  0  0  0  0  0  0
    4.0611    1.8100    0.0000 H   0  0  0  0  0  0  0  0  0  0  0  0
    4.2881    0.9631    0.0000 H   0  0  0  0  0  0  0  0  0  0  0  0
   14.9904    1.1200    0.0000 H   0  0  0  0  0  0  0  0  0  0  0  0
    9.7942   -1.1200    0.0000 H   0  0  0  0  0  0  0  0  0  0  0  0
   22.4746   -0.5369    0.0000 H   0  0  0  0  0  0  0  0  0  0  0  0
   23.3215   -0.3100    0.0000 H   0  0  0  0  0  0  0  0  0  0  0  0
   23.0946    0.5369    0.0000 H   0  0  0  0  0  0  0  0  0  0  0  0
    2.3100    0.5369    0.0000 H   0  0  0  0  0  0  0  0  0  0  0  0
    1.4631    0.3100    0.0000 H   0  0  0  0  0  0  0  0  0  0  0  0
    1.6900   -0.5369    0.0000 H   0  0  0  0  0  0  0  0  0  0  0  0
   15.8564   -0.6200    0.0000 H   0  0  0  0  0  0  0  0  0  0  0  0
    8.9282    0.6200    0.0000 H   0  0  0  0  0  0  0  0  0  0  0  0
  1  2  1  0  0  0  0
  1  3  1  0  0  0  0
  1 10  1  0  0  0  0
  1 11  1  0  0  0  0
  2 28  1  0  0  0  0
  3 29  1  0  0  0  0
  4 34  1  0  0  0  0
  4 48  1  0  0  0  0
  5 35  1  0  0  0  0
  5 49  1  0  0  0  0
  6 28  2  0  0  0  0
  7 29  2  0  0  0  0
  8 48  2  0  0  0  0
  9 49  2  0  0  0  0
 10 12  1  0  0  0  0
 10 50  1  0  0  0  0
 10 51  1  0  0  0  0
 11 13  1  0  0  0  0
 11 52  1  0  0  0  0
 11 53  1  0  0  0  0
 12 14  1  0  0  0  0
 12 54  1  0  0  0  0
 12 55  1  0  0  0  0
 13 15  1  0  0  0  0
 13 56  1  0  0  0  0
 13 57  1  0  0  0  0
 14 16  1  0  0  0  0
 14 58  1  0  0  0  0
 14 59  1  0  0  0  0
 15 17  1  0  0  0  0
 15 60  1  0  0  0  0
 15 61  1  0  0  0  0
 16 18  1  0  0  0  0
 16 62  1  0  0  0  0
 16 63  1  0  0  0  0
 17 19  1  0  0  0  0
 17 64  1  0  0  0  0
 17 65  1  0  0  0  0
 18 20  1  0  0  0  0
 18 66  1  0  0  0  0
 18 67  1  0  0  0  0
 19 21  1  0  0  0  0
 19 68  1  0  0  0  0
 19 69  1  0  0  0  0
 20 26  1  0  0  0  0
 20 70  1  0  0  0  0
 20 71  1  0  0  0  0
 21 27  1  0  0  0  0
 21 72  1  0  0  0  0
 21 73  1  0  0  0  0
 22 24  1  0  0  0  0
 22 30  1  0  0  0  0
 22 34  1  0  0  0  0
 22 74  1  0  0  0  0
 23 25  1  0  0  0  0
 23 31  1  0  0  0  0
 23 35  1  0  0  0  0
 23 75  1  0  0  0  0
 24 32  1  0  0  0  0
 24 76  1  0  0  0  0
 24 77  1  0  0  0  0
 25 33  1  0  0  0  0
 25 78  1  0  0  0  0
 25 79  1  0  0  0  0
 26 38  1  0  0  0  0
 26 80  1  0  0  0  0
 26 81  1  0  0  0  0
 27 39  1  0  0  0  0
 27 82  1  0  0  0  0
 27 83  1  0  0  0  0
 28 40  1  0  0  0  0
 29 41  1  0  0  0  0
 30 42  1  0  0  0  0
 30 84  1  0  0  0  0
 30 85  1  0  0  0  0
 31 43  1  0  0  0  0
 31 86  1  0  0  0  0
 31 87  1  0  0  0  0
 32 36  1  0  0  0  0
 32 88  1  0  0  0  0
 32 89  1  0  0  0  0
 33 37  1  0  0  0  0
 33 90  1  0  0  0  0
 33 91  1  0  0  0  0
 34 92  1  0  0  0  0
 34 93  1  0  0  0  0
 35 94  1  0  0  0  0
 35 95  1  0  0  0  0
 36 44  1  0  0  0  0
 36 96  1  0  0  0  0
 36 97  1  0  0  0  0
 37 45  1  0  0  0  0
 37 98  1  0  0  0  0
 37 99  1  0  0  0  0
 38100  1  0  0  0  0
 38101  1  0  0  0  0
 38102  1  0  0  0  0
 39103  1  0  0  0  0
 39104  1  0  0  0  0
 39105  1  0  0  0  0
 40 46  2  0  0  0  0
 40112  1  0  0  0  0
 41 47  2  0  0  0  0
 41113  1  0  0  0  0
 42106  1  0  0  0  0
 42107  1  0  0  0  0
 42108  1  0  0  0  0
 43109  1  0  0  0  0
 43110  1  0  0  0  0
 43111  1  0  0  0  0
 44114  1  0  0  0  0
 44115  1  0  0  0  0
 44116  1  0  0  0  0
 45117  1  0  0  0  0
 45118  1  0  0  0  0
 45119  1  0  0  0  0
 46 48  1  0  0  0  0
 46120  1  0  0  0  0
 47 49  1  0  0  0  0
 47121  1  0  0  0  0
M  END
> <PUBCHEM_COMPOUND_CID>
16684161

> <PUBCHEM_COMPOUND_CANONICALIZED>
1

> <PUBCHEM_CACTVS_COMPLEXITY>
857

> <PUBCHEM_CACTVS_HBOND_ACCEPTOR>
8

> <PUBCHEM_CACTVS_HBOND_DONOR>
0

> <PUBCHEM_CACTVS_ROTATABLE_BOND>
36

> <PUBCHEM_CACTVS_SUBSKEYS>
AAADcfB8PAAAAAAAAACAAAAAAAAAAAAAAAAAAAAAAAAAAAAAAAAAGgAAAAAADQCggAICCAAABACIACDSCAAAAAAAAAAICAAAAEAABAIAIAACEAAEAAAAIYGAwIAOAAAAAAAAAAAAAAAAAAAAAAAAAAAAAA==

> <PUBCHEM_IUPAC_OPENEYE_NAME>
O4-[[(E)-4-(2-ethylhexoxy)-4-oxo-but-2-enoyl]oxy-dioctyl-stannyl] O1-(2-ethylhexyl) (E)-but-2-enedioate

> <PUBCHEM_IUPAC_CAS_NAME>
(E)-2-butenedioic acid O4-[[(E)-4-(2-ethylhexoxy)-1,4-dioxobut-2-enoxy]-dioctylstannyl] ester O1-(2-ethylhexyl) ester

> <PUBCHEM_IUPAC_NAME_MARKUP>
4-<I>O</I>-[[(<I>E</I>)-4-(2-ethylhexoxy)-4-oxobut-2-enoyl]oxy-dioctylstannyl] 1-<I>O</I>-(2-ethylhexyl) (<I>E</I>)-but-2-enedioate

> <PUBCHEM_IUPAC_NAME>
4-O-[[(E)-4-(2-ethylhexoxy)-4-oxobut-2-enoyl]oxy-dioctylstannyl] 1-O-(2-ethylhexyl) (E)-but-2-enedioate

> <PUBCHEM_IUPAC_SYSTEMATIC_NAME>
O4-[[(E)-4-(2-ethylhexoxy)-4-oxidanylidene-but-2-enoyl]oxy-dioctyl-stannyl] O1-(2-ethylhexyl) (E)-but-2-enedioate

> <PUBCHEM_IUPAC_TRADITIONAL_NAME>
(E)-but-2-enedioic acid O4-[[(E)-4-(2-ethylhexoxy)-4-keto-but-2-enoyl]oxy-dioctyl-stannyl] ester O1-(2-ethylhexyl) ester

> <PUBCHEM_IUPAC_INCHI>
InChI=1S/2C12H20O4.2C8H17.Sn/c2*1-3-5-6-10(4-2)9-16-12(15)8-7-11(13)14;2*1-3-5-7-8-6-4-2;/h2*7-8,10H,3-6,9H2,1-2H3,(H,13,14);2*1,3-8H2,2H3;/q;;;;+2/p-2/b2*8-7+;;;

> <PUBCHEM_IUPAC_INCHIKEY>
LUHRVCWDUSUHMP-FTHVFMQUSA-L

> <PUBCHEM_EXACT_MASS>
800.424922

> <PUBCHEM_MOLECULAR_FORMULA>
C40H72O8Sn

> <PUBCHEM_MOLECULAR_WEIGHT>
799.7

> <PUBCHEM_SMILES>
CCCCCCCC[Sn](OC(=O)/C=C/C(=O)OCC(CCCC)CC)(OC(=O)/C=C/C(=O)OCC(CCCC)CC)CCCCCCCC

> <PUBCHEM_OPENEYE_CAN_SMILES>
CCCCCCCC[Sn](CCCCCCCC)(OC(=O)C=CC(=O)OCC(CC)CCCC)OC(=O)C=CC(=O)OCC(CC)CCCC

> <PUBCHEM_OPENEYE_ISO_SMILES>
CCCCCCCC[Sn](OC(=O)/C=C/C(=O)OCC(CCCC)CC)(OC(=O)/C=C/C(=O)OCC(CCCC)CC)CCCCCCCC

> <PUBCHEM_CACTVS_TPSA>
105

> <PUBCHEM_MONOISOTOPIC_WEIGHT>
800.424922

> <PUBCHEM_TOTAL_CHARGE>
0

> <PUBCHEM_HEAVY_ATOM_COUNT>
49

> <PUBCHEM_ATOM_DEF_STEREO_COUNT>
0

> <PUBCHEM_ATOM_UDEF_STEREO_COUNT>
2

> <PUBCHEM_BOND_DEF_STEREO_COUNT>
2

> <PUBCHEM_BOND_UDEF_STEREO_COUNT>
0

> <PUBCHEM_ISOTOPIC_ATOM_COUNT>
0

> <PUBCHEM_COMPONENT_COUNT>
1

> <PUBCHEM_CACTVS_TAUTO_COUNT>
-1

> <PUBCHEM_COORDINATE_TYPE>
1
5
255

> <PUBCHEM_BONDANNOTATIONS>
22  30  3
23  31  3

$$$$
