16686081
  -OEChem-04042505462D

156160  0     0  0  0  0  0  0999 V2000
    7.2857   -2.1306    0.0000 P   0  0  0  0  0  0  0  0  0  0  0  0
    6.8336    1.3039    0.0000 P   0  0  0  0  0  0  0  0  0  0  0  0
    7.0596   -0.4133    0.0000 Al  0  4  0  0  0  0  0  0  0  0  0  0
    6.3618   -2.5132    0.0000 O   0  0  0  0  0  0  0  0  0  0  0  0
    8.2096   -2.5132    0.0000 O   0  0  0  0  0  0  0  0  0  0  0  0
    7.6269    1.9127    0.0000 O   0  0  0  0  0  0  0  0  0  0  0  0
    5.8421    1.4344    0.0000 O   0  0  0  0  0  0  0  0  0  0  0  0
    7.6684   -1.2067    0.0000 O   0  0  0  0  0  0  0  0  0  0  0  0
    7.4423    0.5106    0.0000 O   0  0  0  0  0  0  0  0  0  0  0  0
    6.9030   -1.2067    0.0000 O   0  0  0  0  0  0  0  0  0  0  0  0
    6.7030    0.3125    0.0000 O   0  0  0  0  0  0  0  0  0  0  0  0
    6.0682   -0.5439    0.0000 O   0  0  0  0  0  0  0  0  0  0  0  0
    4.5767   -2.3570    0.0000 C   0  0  0  0  0  0  0  0  0  0  0  0
    9.9948   -2.3570    0.0000 C   0  0  0  0  0  0  0  0  0  0  0  0
    9.3917    2.2238    0.0000 C   0  0  0  0  0  0  0  0  0  0  0  0
    4.1582    0.8215    0.0000 C   0  0  0  0  0  0  0  0  0  0  0  0
    4.9487   -3.2852    0.0000 C   0  0  0  0  0  0  0  0  0  0  0  0
    9.6228   -3.2852    0.0000 C   0  0  0  0  0  0  0  0  0  0  0  0
    8.7922    3.0241    0.0000 C   0  0  0  0  0  0  0  0  0  0  0  0
    4.2773    1.8144    0.0000 C   0  0  0  0  0  0  0  0  0  0  0  0
    4.1011   -5.8648    0.0000 C   0  0  0  0  0  0  0  0  0  0  0  0
   10.4703   -5.8648    0.0000 C   0  0  0  0  0  0  0  0  0  0  0  0
    8.9432    5.7351    0.0000 C   0  0  0  0  0  0  0  0  0  0  0  0
    2.7910    4.0866    0.0000 C   0  0  0  0  0  0  0  0  0  0  0  0
    6.3618   -4.3610    0.0000 C   0  0  0  0  0  0  0  0  0  0  0  0
    8.2096   -4.3610    0.0000 C   0  0  0  0  0  0  0  0  0  0  0  0
    7.1487    3.6975    0.0000 C   0  0  0  0  0  0  0  0  0  0  0  0
    5.3639    3.2192    0.0000 C   0  0  0  0  0  0  0  0  0  0  0  0
    7.2857   -4.7437    0.0000 C   0  0  0  0  0  0  0  0  0  0  0  0
    6.1572    3.8280    0.0000 C   0  0  0  0  0  0  0  0  0  0  0  0
    4.7068   -5.0691    0.0000 C   0  0  0  0  0  0  0  0  0  0  0  0
    9.8646   -5.0691    0.0000 C   0  0  0  0  0  0  0  0  0  0  0  0
    8.5641    4.8098    0.0000 C   0  0  0  0  0  0  0  0  0  0  0  0
    3.5820    3.4748    0.0000 C   0  0  0  0  0  0  0  0  0  0  0  0
    5.9792   -3.4371    0.0000 C   0  0  0  0  0  0  0  0  0  0  0  0
    8.5923   -3.4371    0.0000 C   0  0  0  0  0  0  0  0  0  0  0  0
    7.7574    2.9041    0.0000 C   0  0  0  0  0  0  0  0  0  0  0  0
    5.2334    2.2278    0.0000 C   0  0  0  0  0  0  0  0  0  0  0  0
    4.3082   -4.1067    0.0000 C   0  0  0  0  0  0  0  0  0  0  0  0
   10.2633   -4.1067    0.0000 C   0  0  0  0  0  0  0  0  0  0  0  0
    9.1982    3.9834    0.0000 C   0  0  0  0  0  0  0  0  0  0  0  0
    3.4460    2.4421    0.0000 C   0  0  0  0  0  0  0  0  0  0  0  0
    5.7406   -5.1971    0.0000 C   0  0  0  0  0  0  0  0  0  0  0  0
    8.8309   -5.1971    0.0000 C   0  0  0  0  0  0  0  0  0  0  0  0
    7.5324    4.6658    0.0000 C   0  0  0  0  0  0  0  0  0  0  0  0
    4.5474    3.8660    0.0000 C   0  0  0  0  0  0  0  0  0  0  0  0
    4.2047   -1.4288    0.0000 C   0  0  0  0  0  0  0  0  0  0  0  0
    3.6484   -2.7290    0.0000 C   0  0  0  0  0  0  0  0  0  0  0  0
    5.5049   -1.9850    0.0000 C   0  0  0  0  0  0  0  0  0  0  0  0
   10.3667   -1.4288    0.0000 C   0  0  0  0  0  0  0  0  0  0  0  0
   10.9230   -2.7290    0.0000 C   0  0  0  0  0  0  0  0  0  0  0  0
    9.0665   -1.9850    0.0000 C   0  0  0  0  0  0  0  0  0  0  0  0
    9.9912    1.4235    0.0000 C   0  0  0  0  0  0  0  0  0  0  0  0
   10.1920    2.8233    0.0000 C   0  0  0  0  0  0  0  0  0  0  0  0
    8.5914    1.6242    0.0000 C   0  0  0  0  0  0  0  0  0  0  0  0
    4.0392   -0.1714    0.0000 C   0  0  0  0  0  0  0  0  0  0  0  0
    3.1654    0.9405    0.0000 C   0  0  0  0  0  0  0  0  0  0  0  0
    5.1511    0.7024    0.0000 C   0  0  0  0  0  0  0  0  0  0  0  0
    3.4954   -6.6604    0.0000 C   0  0  0  0  0  0  0  0  0  0  0  0
    3.3054   -5.2591    0.0000 C   0  0  0  0  0  0  0  0  0  0  0  0
    4.8968   -6.4705    0.0000 C   0  0  0  0  0  0  0  0  0  0  0  0
   11.0760   -6.6604    0.0000 C   0  0  0  0  0  0  0  0  0  0  0  0
   11.2660   -5.2591    0.0000 C   0  0  0  0  0  0  0  0  0  0  0  0
    9.6746   -6.4705    0.0000 C   0  0  0  0  0  0  0  0  0  0  0  0
    9.3223    6.6604    0.0000 C   0  0  0  0  0  0  0  0  0  0  0  0
    8.0178    6.1142    0.0000 C   0  0  0  0  0  0  0  0  0  0  0  0
    9.8685    5.3560    0.0000 C   0  0  0  0  0  0  0  0  0  0  0  0
    2.0000    4.6984    0.0000 C   0  0  0  0  0  0  0  0  0  0  0  0
    2.1792    3.2956    0.0000 C   0  0  0  0  0  0  0  0  0  0  0  0
    3.4028    4.8776    0.0000 C   0  0  0  0  0  0  0  0  0  0  0  0
    6.9083   -5.2356    0.0000 H   0  0  0  0  0  0  0  0  0  0  0  0
    7.6632   -5.2356    0.0000 H   0  0  0  0  0  0  0  0  0  0  0  0
    6.3945    4.4008    0.0000 H   0  0  0  0  0  0  0  0  0  0  0  0
    5.6654    4.2054    0.0000 H   0  0  0  0  0  0  0  0  0  0  0  0
    3.6938   -4.0234    0.0000 H   0  0  0  0  0  0  0  0  0  0  0  0
   10.8776   -4.0234    0.0000 H   0  0  0  0  0  0  0  0  0  0  0  0
    9.8132    4.0619    0.0000 H   0  0  0  0  0  0  0  0  0  0  0  0
    2.8742    2.2026    0.0000 H   0  0  0  0  0  0  0  0  0  0  0  0
    5.9844   -5.7671    0.0000 H   0  0  0  0  0  0  0  0  0  0  0  0
    8.5870   -5.7671    0.0000 H   0  0  0  0  0  0  0  0  0  0  0  0
    7.1493    5.1533    0.0000 H   0  0  0  0  0  0  0  0  0  0  0  0
    4.6354    4.4797    0.0000 H   0  0  0  0  0  0  0  0  0  0  0  0
    4.7802   -1.1982    0.0000 H   0  0  0  0  0  0  0  0  0  0  0  0
    3.9741   -0.8533    0.0000 H   0  0  0  0  0  0  0  0  0  0  0  0
    3.6292   -1.6594    0.0000 H   0  0  0  0  0  0  0  0  0  0  0  0
    3.4178   -2.1535    0.0000 H   0  0  0  0  0  0  0  0  0  0  0  0
    3.0729   -2.9596    0.0000 H   0  0  0  0  0  0  0  0  0  0  0  0
    3.8791   -3.3045    0.0000 H   0  0  0  0  0  0  0  0  0  0  0  0
    5.7356   -2.5606    0.0000 H   0  0  0  0  0  0  0  0  0  0  0  0
    6.0804   -1.7544    0.0000 H   0  0  0  0  0  0  0  0  0  0  0  0
    5.2743   -1.4095    0.0000 H   0  0  0  0  0  0  0  0  0  0  0  0
   10.9423   -1.6594    0.0000 H   0  0  0  0  0  0  0  0  0  0  0  0
   10.5974   -0.8533    0.0000 H   0  0  0  0  0  0  0  0  0  0  0  0
    9.7912   -1.1981    0.0000 H   0  0  0  0  0  0  0  0  0  0  0  0
   10.6924   -3.3045    0.0000 H   0  0  0  0  0  0  0  0  0  0  0  0
   11.4985   -2.9596    0.0000 H   0  0  0  0  0  0  0  0  0  0  0  0
   11.1536   -2.1535    0.0000 H   0  0  0  0  0  0  0  0  0  0  0  0
    9.2972   -1.4095    0.0000 H   0  0  0  0  0  0  0  0  0  0  0  0
    8.4910   -1.7544    0.0000 H   0  0  0  0  0  0  0  0  0  0  0  0
    8.8359   -2.5606    0.0000 H   0  0  0  0  0  0  0  0  0  0  0  0
    9.4950    1.0517    0.0000 H   0  0  0  0  0  0  0  0  0  0  0  0
   10.3630    0.9272    0.0000 H   0  0  0  0  0  0  0  0  0  0  0  0
   10.4875    1.7952    0.0000 H   0  0  0  0  0  0  0  0  0  0  0  0
   10.5638    2.3271    0.0000 H   0  0  0  0  0  0  0  0  0  0  0  0
   10.6882    3.1951    0.0000 H   0  0  0  0  0  0  0  0  0  0  0  0
    9.8203    3.3196    0.0000 H   0  0  0  0  0  0  0  0  0  0  0  0
    8.2196    2.1205    0.0000 H   0  0  0  0  0  0  0  0  0  0  0  0
    8.0951    1.2525    0.0000 H   0  0  0  0  0  0  0  0  0  0  0  0
    8.9631    1.1280    0.0000 H   0  0  0  0  0  0  0  0  0  0  0  0
    3.4236   -0.0976    0.0000 H   0  0  0  0  0  0  0  0  0  0  0  0
    3.9654   -0.7870    0.0000 H   0  0  0  0  0  0  0  0  0  0  0  0
    4.6548   -0.2452    0.0000 H   0  0  0  0  0  0  0  0  0  0  0  0
    3.2392    1.5561    0.0000 H   0  0  0  0  0  0  0  0  0  0  0  0
    2.5498    1.0144    0.0000 H   0  0  0  0  0  0  0  0  0  0  0  0
    3.0915    0.3250    0.0000 H   0  0  0  0  0  0  0  0  0  0  0  0
    5.0773    0.0869    0.0000 H   0  0  0  0  0  0  0  0  0  0  0  0
    5.7667    0.6286    0.0000 H   0  0  0  0  0  0  0  0  0  0  0  0
    5.2249    1.3180    0.0000 H   0  0  0  0  0  0  0  0  0  0  0  0
    3.0021   -6.2849    0.0000 H   0  0  0  0  0  0  0  0  0  0  0  0
    3.1199   -7.1538    0.0000 H   0  0  0  0  0  0  0  0  0  0  0  0
    3.9888   -7.0360    0.0000 H   0  0  0  0  0  0  0  0  0  0  0  0
    3.6810   -4.7657    0.0000 H   0  0  0  0  0  0  0  0  0  0  0  0
    2.8121   -4.8835    0.0000 H   0  0  0  0  0  0  0  0  0  0  0  0
    2.9299   -5.7524    0.0000 H   0  0  0  0  0  0  0  0  0  0  0  0
    4.5213   -6.9638    0.0000 H   0  0  0  0  0  0  0  0  0  0  0  0
    5.3902   -6.8460    0.0000 H   0  0  0  0  0  0  0  0  0  0  0  0
    5.2724   -5.9771    0.0000 H   0  0  0  0  0  0  0  0  0  0  0  0
   10.5827   -7.0360    0.0000 H   0  0  0  0  0  0  0  0  0  0  0  0
   11.4516   -7.1538    0.0000 H   0  0  0  0  0  0  0  0  0  0  0  0
   11.5694   -6.2849    0.0000 H   0  0  0  0  0  0  0  0  0  0  0  0
   11.6416   -5.7524    0.0000 H   0  0  0  0  0  0  0  0  0  0  0  0
   11.7594   -4.8835    0.0000 H   0  0  0  0  0  0  0  0  0  0  0  0
   10.8905   -4.7657    0.0000 H   0  0  0  0  0  0  0  0  0  0  0  0
    9.2991   -5.9771    0.0000 H   0  0  0  0  0  0  0  0  0  0  0  0
    9.1813   -6.8460    0.0000 H   0  0  0  0  0  0  0  0  0  0  0  0
   10.0502   -6.9638    0.0000 H   0  0  0  0  0  0  0  0  0  0  0  0
    9.8960    6.4254    0.0000 H   0  0  0  0  0  0  0  0  0  0  0  0
    9.5574    7.2342    0.0000 H   0  0  0  0  0  0  0  0  0  0  0  0
    8.7486    6.8955    0.0000 H   0  0  0  0  0  0  0  0  0  0  0  0
    8.2529    6.6879    0.0000 H   0  0  0  0  0  0  0  0  0  0  0  0
    7.4441    6.3493    0.0000 H   0  0  0  0  0  0  0  0  0  0  0  0
    7.7828    5.5405    0.0000 H   0  0  0  0  0  0  0  0  0  0  0  0
    9.6335    4.7823    0.0000 H   0  0  0  0  0  0  0  0  0  0  0  0
   10.4422    5.1209    0.0000 H   0  0  0  0  0  0  0  0  0  0  0  0
   10.1036    5.9297    0.0000 H   0  0  0  0  0  0  0  0  0  0  0  0
    2.3793    5.1889    0.0000 H   0  0  0  0  0  0  0  0  0  0  0  0
    1.5096    5.0778    0.0000 H   0  0  0  0  0  0  0  0  0  0  0  0
    1.6207    4.2080    0.0000 H   0  0  0  0  0  0  0  0  0  0  0  0
    1.6888    3.6750    0.0000 H   0  0  0  0  0  0  0  0  0  0  0  0
    1.7999    2.8052    0.0000 H   0  0  0  0  0  0  0  0  0  0  0  0
    2.6696    2.9163    0.0000 H   0  0  0  0  0  0  0  0  0  0  0  0
    3.8932    4.4983    0.0000 H   0  0  0  0  0  0  0  0  0  0  0  0
    3.7821    5.3680    0.0000 H   0  0  0  0  0  0  0  0  0  0  0  0
    2.9124    5.2570    0.0000 H   0  0  0  0  0  0  0  0  0  0  0  0
    5.8309   -1.1167    0.0000 H   0  0  0  0  0  0  0  0  0  0  0  0
    5.6908   -0.0520    0.0000 H   0  0  0  0  0  0  0  0  0  0  0  0
  1  4  1  0  0  0  0
  1  5  1  0  0  0  0
  1  8  1  0  0  0  0
  1 10  2  0  0  0  0
  2  6  1  0  0  0  0
  2  7  1  0  0  0  0
  2  9  1  0  0  0  0
  2 11  2  0  0  0  0
  3  8  1  0  0  0  0
  3  9  1  0  0  0  0
  4 35  1  0  0  0  0
  5 36  1  0  0  0  0
  6 37  1  0  0  0  0
  7 38  1  0  0  0  0
 12155  1  0  0  0  0
 12156  1  0  0  0  0
 13 17  1  0  0  0  0
 13 47  1  0  0  0  0
 13 48  1  0  0  0  0
 13 49  1  0  0  0  0
 14 18  1  0  0  0  0
 14 50  1  0  0  0  0
 14 51  1  0  0  0  0
 14 52  1  0  0  0  0
 15 19  1  0  0  0  0
 15 53  1  0  0  0  0
 15 54  1  0  0  0  0
 15 55  1  0  0  0  0
 16 20  1  0  0  0  0
 16 56  1  0  0  0  0
 16 57  1  0  0  0  0
 16 58  1  0  0  0  0
 17 35  1  0  0  0  0
 17 39  2  0  0  0  0
 18 36  1  0  0  0  0
 18 40  2  0  0  0  0
 19 37  1  0  0  0  0
 19 41  2  0  0  0  0
 20 38  1  0  0  0  0
 20 42  2  0  0  0  0
 21 31  1  0  0  0  0
 21 59  1  0  0  0  0
 21 60  1  0  0  0  0
 21 61  1  0  0  0  0
 22 32  1  0  0  0  0
 22 62  1  0  0  0  0
 22 63  1  0  0  0  0
 22 64  1  0  0  0  0
 23 33  1  0  0  0  0
 23 65  1  0  0  0  0
 23 66  1  0  0  0  0
 23 67  1  0  0  0  0
 24 34  1  0  0  0  0
 24 68  1  0  0  0  0
 24 69  1  0  0  0  0
 24 70  1  0  0  0  0
 25 29  1  0  0  0  0
 25 35  2  0  0  0  0
 25 43  1  0  0  0  0
 26 29  1  0  0  0  0
 26 36  2  0  0  0  0
 26 44  1  0  0  0  0
 27 30  1  0  0  0  0
 27 37  2  0  0  0  0
 27 45  1  0  0  0  0
 28 30  1  0  0  0  0
 28 38  2  0  0  0  0
 28 46  1  0  0  0  0
 29 71  1  0  0  0  0
 29 72  1  0  0  0  0
 30 73  1  0  0  0  0
 30 74  1  0  0  0  0
 31 39  1  0  0  0  0
 31 43  2  0  0  0  0
 32 40  1  0  0  0  0
 32 44  2  0  0  0  0
 33 41  1  0  0  0  0
 33 45  2  0  0  0  0
 34 42  1  0  0  0  0
 34 46  2  0  0  0  0
 39 75  1  0  0  0  0
 40 76  1  0  0  0  0
 41 77  1  0  0  0  0
 42 78  1  0  0  0  0
 43 79  1  0  0  0  0
 44 80  1  0  0  0  0
 45 81  1  0  0  0  0
 46 82  1  0  0  0  0
 47 83  1  0  0  0  0
 47 84  1  0  0  0  0
 47 85  1  0  0  0  0
 48 86  1  0  0  0  0
 48 87  1  0  0  0  0
 48 88  1  0  0  0  0
 49 89  1  0  0  0  0
 49 90  1  0  0  0  0
 49 91  1  0  0  0  0
 50 92  1  0  0  0  0
 50 93  1  0  0  0  0
 50 94  1  0  0  0  0
 51 95  1  0  0  0  0
 51 96  1  0  0  0  0
 51 97  1  0  0  0  0
 52 98  1  0  0  0  0
 52 99  1  0  0  0  0
 52100  1  0  0  0  0
 53101  1  0  0  0  0
 53102  1  0  0  0  0
 53103  1  0  0  0  0
 54104  1  0  0  0  0
 54105  1  0  0  0  0
 54106  1  0  0  0  0
 55107  1  0  0  0  0
 55108  1  0  0  0  0
 55109  1  0  0  0  0
 56110  1  0  0  0  0
 56111  1  0  0  0  0
 56112  1  0  0  0  0
 57113  1  0  0  0  0
 57114  1  0  0  0  0
 57115  1  0  0  0  0
 58116  1  0  0  0  0
 58117  1  0  0  0  0
 58118  1  0  0  0  0
 59119  1  0  0  0  0
 59120  1  0  0  0  0
 59121  1  0  0  0  0
 60122  1  0  0  0  0
 60123  1  0  0  0  0
 60124  1  0  0  0  0
 61125  1  0  0  0  0
 61126  1  0  0  0  0
 61127  1  0  0  0  0
 62128  1  0  0  0  0
 62129  1  0  0  0  0
 62130  1  0  0  0  0
 63131  1  0  0  0  0
 63132  1  0  0  0  0
 63133  1  0  0  0  0
 64134  1  0  0  0  0
 64135  1  0  0  0  0
 64136  1  0  0  0  0
 65137  1  0  0  0  0
 65138  1  0  0  0  0
 65139  1  0  0  0  0
 66140  1  0  0  0  0
 66141  1  0  0  0  0
 66142  1  0  0  0  0
 67143  1  0  0  0  0
 67144  1  0  0  0  0
 67145  1  0  0  0  0
 68146  1  0  0  0  0
 68147  1  0  0  0  0
 68148  1  0  0  0  0
 69149  1  0  0  0  0
 69150  1  0  0  0  0
 69151  1  0  0  0  0
 70152  1  0  0  0  0
 70153  1  0  0  0  0
 70154  1  0  0  0  0
M  RAD  1   3   2
M  END
> <PUBCHEM_COMPOUND_CID>
16686081

> <PUBCHEM_COMPOUND_CANONICALIZED>
1

> <PUBCHEM_CACTVS_COMPLEXITY>
1600

> <PUBCHEM_CACTVS_HBOND_ACCEPTOR>
9

> <PUBCHEM_CACTVS_HBOND_DONOR>
1

> <PUBCHEM_CACTVS_ROTATABLE_BOND>
12

> <PUBCHEM_CACTVS_SUBSKEYS>
AAADcfB8PAMAABAAAAAAAAAAAAAAAAAAAAAwYMGAAAASJAABVAAAGgAACKAADgSAmAAyBoAAARCAQiBCAIACAAAgIAAAiAAECIgIJiKAERKAMAAkwBEIiAeA4PQPoAACAAAIAABAAAQAABAAAAAAAAAAAA==

> <PUBCHEM_IUPAC_INCHI>
InChI=1S/2C29H43O4P.Al.H2O/c2*1-26(2,3)20-14-18-13-19-15-21(27(4,5)6)17-23(29(10,11)12)25(19)33-34(30,31)32-24(18)22(16-20)28(7,8)9;;/h2*14-17H,13H2,1-12H3,(H,30,31);;1H2/q;;+2;/p-2

> <PUBCHEM_IUPAC_INCHIKEY>
MUBYBLSNBCQXCW-UHFFFAOYSA-L

> <PUBCHEM_EXACT_MASS>
1015.5562467

> <PUBCHEM_MOLECULAR_FORMULA>
C58H86AlO9P2

> <PUBCHEM_MOLECULAR_WEIGHT>
1016.2

> <PUBCHEM_SMILES>
CC(C)(C)C1=CC2=C(C(=C1)C(C)(C)C)OP(=O)(OC3=C(C2)C=C(C=C3C(C)(C)C)C(C)(C)C)O[Al]OP4(=O)OC5=C(CC6=C(O4)C(=CC(=C6)C(C)(C)C)C(C)(C)C)C=C(C=C5C(C)(C)C)C(C)(C)C.O

> <PUBCHEM_OPENEYE_CAN_SMILES>
CC(C)(C)C1=CC2=C(C(=C1)C(C)(C)C)OP(=O)(OC3=C(C2)C=C(C=C3C(C)(C)C)C(C)(C)C)O[Al]OP4(=O)OC5=C(CC6=C(O4)C(=CC(=C6)C(C)(C)C)C(C)(C)C)C=C(C=C5C(C)(C)C)C(C)(C)C.O

> <PUBCHEM_OPENEYE_ISO_SMILES>
CC(C)(C)C1=CC2=C(C(=C1)C(C)(C)C)OP(=O)(OC3=C(C2)C=C(C=C3C(C)(C)C)C(C)(C)C)O[Al]OP4(=O)OC5=C(CC6=C(O4)C(=CC(=C6)C(C)(C)C)C(C)(C)C)C=C(C=C5C(C)(C)C)C(C)(C)C.O

> <PUBCHEM_CACTVS_TPSA>
90.5

> <PUBCHEM_MONOISOTOPIC_WEIGHT>
1015.5562467

> <PUBCHEM_TOTAL_CHARGE>
0

> <PUBCHEM_HEAVY_ATOM_COUNT>
70

> <PUBCHEM_ATOM_DEF_STEREO_COUNT>
0

> <PUBCHEM_ATOM_UDEF_STEREO_COUNT>
0

> <PUBCHEM_BOND_DEF_STEREO_COUNT>
0

> <PUBCHEM_BOND_UDEF_STEREO_COUNT>
0

> <PUBCHEM_ISOTOPIC_ATOM_COUNT>
0

> <PUBCHEM_COMPONENT_COUNT>
2

> <PUBCHEM_CACTVS_TAUTO_COUNT>
-1

> <PUBCHEM_NONSTANDARDBOND>
3  12  6

> <PUBCHEM_COORDINATE_TYPE>
1
5
255

> <PUBCHEM_BONDANNOTATIONS>
17  35  8
17  39  8
18  36  8
18  40  8
19  37  8
19  41  8
20  38  8
20  42  8
25  35  8
25  43  8
26  36  8
26  44  8
27  37  8
27  45  8
28  38  8
28  46  8
31  39  8
31  43  8
32  40  8
32  44  8
33  41  8
33  45  8
34  42  8
34  46  8

$$$$
