16684186
  -OEChem-04042505492D

121120  0     0  0  0  0  0  0999 V2000
   13.2583    0.0000    0.0000 Sn  0  0  0  0  0  0  0  0  0  0  0  0
   14.1244    0.5000    0.0000 O   0  0  0  0  0  0  0  0  0  0  0  0
   12.3923   -0.5000    0.0000 O   0  0  0  0  0  0  0  0  0  0  0  0
   14.9904   -1.0000    0.0000 O   0  0  0  0  0  0  0  0  0  0  0  0
   11.5263    1.0000    0.0000 O   0  0  0  0  0  0  0  0  0  0  0  0
   18.4545   -0.0000    0.0000 O   0  0  0  0  0  0  0  0  0  0  0  0
    8.0622   -0.0000    0.0000 O   0  0  0  0  0  0  0  0  0  0  0  0
   17.5885    1.5000    0.0000 O   0  0  0  0  0  0  0  0  0  0  0  0
    8.9282   -1.5000    0.0000 O   0  0  0  0  0  0  0  0  0  0  0  0
   12.7583    0.8660    0.0000 C   0  0  0  0  0  0  0  0  0  0  0  0
   13.7583   -0.8660    0.0000 C   0  0  0  0  0  0  0  0  0  0  0  0
   13.2583    1.7320    0.0000 C   0  0  0  0  0  0  0  0  0  0  0  0
   13.2583   -1.7320    0.0000 C   0  0  0  0  0  0  0  0  0  0  0  0
   12.7583    2.5981    0.0000 C   0  0  0  0  0  0  0  0  0  0  0  0
   13.7583   -2.5981    0.0000 C   0  0  0  0  0  0  0  0  0  0  0  0
   13.2583    3.4641    0.0000 C   0  0  0  0  0  0  0  0  0  0  0  0
   13.2583   -3.4641    0.0000 C   0  0  0  0  0  0  0  0  0  0  0  0
   12.7583    4.3301    0.0000 C   0  0  0  0  0  0  0  0  0  0  0  0
   13.7583   -4.3301    0.0000 C   0  0  0  0  0  0  0  0  0  0  0  0
   13.2583    5.1962    0.0000 C   0  0  0  0  0  0  0  0  0  0  0  0
   13.2583   -5.1962    0.0000 C   0  0  0  0  0  0  0  0  0  0  0  0
   12.7583    6.0622    0.0000 C   0  0  0  0  0  0  0  0  0  0  0  0
   13.7583   -6.0622    0.0000 C   0  0  0  0  0  0  0  0  0  0  0  0
   14.9904    0.0000    0.0000 C   0  0  0  0  0  0  0  0  0  0  0  0
   11.5263   -0.0000    0.0000 C   0  0  0  0  0  0  0  0  0  0  0  0
   13.2583    6.9282    0.0000 C   0  0  0  0  0  0  0  0  0  0  0  0
   13.2583   -6.9282    0.0000 C   0  0  0  0  0  0  0  0  0  0  0  0
   22.7846    0.5000    0.0000 C   0  0  0  0  0  0  0  0  0  0  0  0
    3.7320   -0.5000    0.0000 C   0  0  0  0  0  0  0  0  0  0  0  0
   21.9186   -0.0000    0.0000 C   0  0  0  0  0  0  0  0  0  0  0  0
    4.5981   -0.0000    0.0000 C   0  0  0  0  0  0  0  0  0  0  0  0
   23.6506   -0.0000    0.0000 C   0  0  0  0  0  0  0  0  0  0  0  0
    2.8660   -0.0000    0.0000 C   0  0  0  0  0  0  0  0  0  0  0  0
   15.8564    0.5000    0.0000 C   0  0  0  0  0  0  0  0  0  0  0  0
   10.6603   -0.5000    0.0000 C   0  0  0  0  0  0  0  0  0  0  0  0
   21.0526    0.5000    0.0000 C   0  0  0  0  0  0  0  0  0  0  0  0
    5.4641   -0.5000    0.0000 C   0  0  0  0  0  0  0  0  0  0  0  0
   20.1865   -0.0000    0.0000 C   0  0  0  0  0  0  0  0  0  0  0  0
    6.3301   -0.0000    0.0000 C   0  0  0  0  0  0  0  0  0  0  0  0
   24.5167    0.5000    0.0000 C   0  0  0  0  0  0  0  0  0  0  0  0
   23.6506   -1.0000    0.0000 C   0  0  0  0  0  0  0  0  0  0  0  0
    2.0000   -0.5000    0.0000 C   0  0  0  0  0  0  0  0  0  0  0  0
    2.8660    1.0000    0.0000 C   0  0  0  0  0  0  0  0  0  0  0  0
   19.3205    0.5000    0.0000 C   0  0  0  0  0  0  0  0  0  0  0  0
    7.1962   -0.5000    0.0000 C   0  0  0  0  0  0  0  0  0  0  0  0
   16.7224   -0.0000    0.0000 C   0  0  0  0  0  0  0  0  0  0  0  0
    9.7942   -0.0000    0.0000 C   0  0  0  0  0  0  0  0  0  0  0  0
   17.5885    0.5000    0.0000 C   0  0  0  0  0  0  0  0  0  0  0  0
    8.9282   -0.5000    0.0000 C   0  0  0  0  0  0  0  0  0  0  0  0
   12.2834    1.2646    0.0000 H   0  0  0  0  0  0  0  0  0  0  0  0
   12.2834    0.4675    0.0000 H   0  0  0  0  0  0  0  0  0  0  0  0
   14.2333   -1.2646    0.0000 H   0  0  0  0  0  0  0  0  0  0  0  0
   14.2333   -0.4675    0.0000 H   0  0  0  0  0  0  0  0  0  0  0  0
   13.7333    1.3335    0.0000 H   0  0  0  0  0  0  0  0  0  0  0  0
   13.7333    2.1306    0.0000 H   0  0  0  0  0  0  0  0  0  0  0  0
   12.7834   -1.3335    0.0000 H   0  0  0  0  0  0  0  0  0  0  0  0
   12.7834   -2.1306    0.0000 H   0  0  0  0  0  0  0  0  0  0  0  0
   12.2834    2.9966    0.0000 H   0  0  0  0  0  0  0  0  0  0  0  0
   12.2834    2.1996    0.0000 H   0  0  0  0  0  0  0  0  0  0  0  0
   14.2333   -2.9966    0.0000 H   0  0  0  0  0  0  0  0  0  0  0  0
   14.2333   -2.1996    0.0000 H   0  0  0  0  0  0  0  0  0  0  0  0
   13.7333    3.0656    0.0000 H   0  0  0  0  0  0  0  0  0  0  0  0
   13.7333    3.8626    0.0000 H   0  0  0  0  0  0  0  0  0  0  0  0
   12.7834   -3.0656    0.0000 H   0  0  0  0  0  0  0  0  0  0  0  0
   12.7834   -3.8626    0.0000 H   0  0  0  0  0  0  0  0  0  0  0  0
   12.2834    4.7287    0.0000 H   0  0  0  0  0  0  0  0  0  0  0  0
   12.2834    3.9316    0.0000 H   0  0  0  0  0  0  0  0  0  0  0  0
   14.2333   -4.7287    0.0000 H   0  0  0  0  0  0  0  0  0  0  0  0
   14.2333   -3.9316    0.0000 H   0  0  0  0  0  0  0  0  0  0  0  0
   13.7333    4.7976    0.0000 H   0  0  0  0  0  0  0  0  0  0  0  0
   13.7333    5.5947    0.0000 H   0  0  0  0  0  0  0  0  0  0  0  0
   12.7834   -4.7976    0.0000 H   0  0  0  0  0  0  0  0  0  0  0  0
   12.7834   -5.5947    0.0000 H   0  0  0  0  0  0  0  0  0  0  0  0
   12.2834    6.4607    0.0000 H   0  0  0  0  0  0  0  0  0  0  0  0
   12.2834    5.6636    0.0000 H   0  0  0  0  0  0  0  0  0  0  0  0
   14.2333   -6.4607    0.0000 H   0  0  0  0  0  0  0  0  0  0  0  0
   14.2333   -5.6636    0.0000 H   0  0  0  0  0  0  0  0  0  0  0  0
   13.7953    6.6182    0.0000 H   0  0  0  0  0  0  0  0  0  0  0  0
   13.5683    7.4651    0.0000 H   0  0  0  0  0  0  0  0  0  0  0  0
   12.7214    7.2382    0.0000 H   0  0  0  0  0  0  0  0  0  0  0  0
   12.7214   -6.6182    0.0000 H   0  0  0  0  0  0  0  0  0  0  0  0
   12.9483   -7.4651    0.0000 H   0  0  0  0  0  0  0  0  0  0  0  0
   13.7953   -7.2382    0.0000 H   0  0  0  0  0  0  0  0  0  0  0  0
   23.1831    0.9749    0.0000 H   0  0  0  0  0  0  0  0  0  0  0  0
   22.3861    0.9749    0.0000 H   0  0  0  0  0  0  0  0  0  0  0  0
    3.3335   -0.9749    0.0000 H   0  0  0  0  0  0  0  0  0  0  0  0
    4.1306   -0.9749    0.0000 H   0  0  0  0  0  0  0  0  0  0  0  0
   21.5201   -0.4749    0.0000 H   0  0  0  0  0  0  0  0  0  0  0  0
   22.3171   -0.4749    0.0000 H   0  0  0  0  0  0  0  0  0  0  0  0
    4.9966    0.4749    0.0000 H   0  0  0  0  0  0  0  0  0  0  0  0
    4.1996    0.4749    0.0000 H   0  0  0  0  0  0  0  0  0  0  0  0
   23.6506    0.6200    0.0000 H   0  0  0  0  0  0  0  0  0  0  0  0
    2.8660   -0.6200    0.0000 H   0  0  0  0  0  0  0  0  0  0  0  0
   21.4511    0.9749    0.0000 H   0  0  0  0  0  0  0  0  0  0  0  0
   20.6540    0.9749    0.0000 H   0  0  0  0  0  0  0  0  0  0  0  0
    5.0656   -0.9749    0.0000 H   0  0  0  0  0  0  0  0  0  0  0  0
    5.8626   -0.9749    0.0000 H   0  0  0  0  0  0  0  0  0  0  0  0
   15.8564    1.1200    0.0000 H   0  0  0  0  0  0  0  0  0  0  0  0
   10.6603   -1.1200    0.0000 H   0  0  0  0  0  0  0  0  0  0  0  0
   19.7880   -0.4749    0.0000 H   0  0  0  0  0  0  0  0  0  0  0  0
   20.5851   -0.4749    0.0000 H   0  0  0  0  0  0  0  0  0  0  0  0
    6.7287    0.4749    0.0000 H   0  0  0  0  0  0  0  0  0  0  0  0
    5.9316    0.4749    0.0000 H   0  0  0  0  0  0  0  0  0  0  0  0
   24.8267   -0.0369    0.0000 H   0  0  0  0  0  0  0  0  0  0  0  0
   25.0536    0.8100    0.0000 H   0  0  0  0  0  0  0  0  0  0  0  0
   24.2067    1.0369    0.0000 H   0  0  0  0  0  0  0  0  0  0  0  0
   23.0306   -1.0000    0.0000 H   0  0  0  0  0  0  0  0  0  0  0  0
   23.6506   -1.6200    0.0000 H   0  0  0  0  0  0  0  0  0  0  0  0
   24.2706   -1.0000    0.0000 H   0  0  0  0  0  0  0  0  0  0  0  0
    1.6900    0.0369    0.0000 H   0  0  0  0  0  0  0  0  0  0  0  0
    1.4631   -0.8100    0.0000 H   0  0  0  0  0  0  0  0  0  0  0  0
    2.3100   -1.0369    0.0000 H   0  0  0  0  0  0  0  0  0  0  0  0
    3.4860    1.0000    0.0000 H   0  0  0  0  0  0  0  0  0  0  0  0
    2.8660    1.6200    0.0000 H   0  0  0  0  0  0  0  0  0  0  0  0
    2.2460    1.0000    0.0000 H   0  0  0  0  0  0  0  0  0  0  0  0
   19.7190    0.9749    0.0000 H   0  0  0  0  0  0  0  0  0  0  0  0
   18.9220    0.9749    0.0000 H   0  0  0  0  0  0  0  0  0  0  0  0
    6.7976   -0.9749    0.0000 H   0  0  0  0  0  0  0  0  0  0  0  0
    7.5947   -0.9749    0.0000 H   0  0  0  0  0  0  0  0  0  0  0  0
   16.7224   -0.6200    0.0000 H   0  0  0  0  0  0  0  0  0  0  0  0
    9.7942    0.6200    0.0000 H   0  0  0  0  0  0  0  0  0  0  0  0
  1  2  1  0  0  0  0
  1  3  1  0  0  0  0
  1 10  1  0  0  0  0
  1 11  1  0  0  0  0
  2 24  1  0  0  0  0
  3 25  1  0  0  0  0
  4 24  2  0  0  0  0
  5 25  2  0  0  0  0
  6 44  1  0  0  0  0
  6 48  1  0  0  0  0
  7 45  1  0  0  0  0
  7 49  1  0  0  0  0
  8 48  2  0  0  0  0
  9 49  2  0  0  0  0
 10 12  1  0  0  0  0
 10 50  1  0  0  0  0
 10 51  1  0  0  0  0
 11 13  1  0  0  0  0
 11 52  1  0  0  0  0
 11 53  1  0  0  0  0
 12 14  1  0  0  0  0
 12 54  1  0  0  0  0
 12 55  1  0  0  0  0
 13 15  1  0  0  0  0
 13 56  1  0  0  0  0
 13 57  1  0  0  0  0
 14 16  1  0  0  0  0
 14 58  1  0  0  0  0
 14 59  1  0  0  0  0
 15 17  1  0  0  0  0
 15 60  1  0  0  0  0
 15 61  1  0  0  0  0
 16 18  1  0  0  0  0
 16 62  1  0  0  0  0
 16 63  1  0  0  0  0
 17 19  1  0  0  0  0
 17 64  1  0  0  0  0
 17 65  1  0  0  0  0
 18 20  1  0  0  0  0
 18 66  1  0  0  0  0
 18 67  1  0  0  0  0
 19 21  1  0  0  0  0
 19 68  1  0  0  0  0
 19 69  1  0  0  0  0
 20 22  1  0  0  0  0
 20 70  1  0  0  0  0
 20 71  1  0  0  0  0
 21 23  1  0  0  0  0
 21 72  1  0  0  0  0
 21 73  1  0  0  0  0
 22 26  1  0  0  0  0
 22 74  1  0  0  0  0
 22 75  1  0  0  0  0
 23 27  1  0  0  0  0
 23 76  1  0  0  0  0
 23 77  1  0  0  0  0
 24 34  1  0  0  0  0
 25 35  1  0  0  0  0
 26 78  1  0  0  0  0
 26 79  1  0  0  0  0
 26 80  1  0  0  0  0
 27 81  1  0  0  0  0
 27 82  1  0  0  0  0
 27 83  1  0  0  0  0
 28 30  1  0  0  0  0
 28 32  1  0  0  0  0
 28 84  1  0  0  0  0
 28 85  1  0  0  0  0
 29 31  1  0  0  0  0
 29 33  1  0  0  0  0
 29 86  1  0  0  0  0
 29 87  1  0  0  0  0
 30 36  1  0  0  0  0
 30 88  1  0  0  0  0
 30 89  1  0  0  0  0
 31 37  1  0  0  0  0
 31 90  1  0  0  0  0
 31 91  1  0  0  0  0
 32 40  1  0  0  0  0
 32 41  1  0  0  0  0
 32 92  1  0  0  0  0
 33 42  1  0  0  0  0
 33 43  1  0  0  0  0
 33 93  1  0  0  0  0
 34 46  2  0  0  0  0
 34 98  1  0  0  0  0
 35 47  2  0  0  0  0
 35 99  1  0  0  0  0
 36 38  1  0  0  0  0
 36 94  1  0  0  0  0
 36 95  1  0  0  0  0
 37 39  1  0  0  0  0
 37 96  1  0  0  0  0
 37 97  1  0  0  0  0
 38 44  1  0  0  0  0
 38100  1  0  0  0  0
 38101  1  0  0  0  0
 39 45  1  0  0  0  0
 39102  1  0  0  0  0
 39103  1  0  0  0  0
 40104  1  0  0  0  0
 40105  1  0  0  0  0
 40106  1  0  0  0  0
 41107  1  0  0  0  0
 41108  1  0  0  0  0
 41109  1  0  0  0  0
 42110  1  0  0  0  0
 42111  1  0  0  0  0
 42112  1  0  0  0  0
 43113  1  0  0  0  0
 43114  1  0  0  0  0
 43115  1  0  0  0  0
 44116  1  0  0  0  0
 44117  1  0  0  0  0
 45118  1  0  0  0  0
 45119  1  0  0  0  0
 46 48  1  0  0  0  0
 46120  1  0  0  0  0
 47 49  1  0  0  0  0
 47121  1  0  0  0  0
M  END
> <PUBCHEM_COMPOUND_CID>
16684186

> <PUBCHEM_COMPOUND_CANONICALIZED>
1

> <PUBCHEM_CACTVS_COMPLEXITY>
853

> <PUBCHEM_CACTVS_HBOND_ACCEPTOR>
8

> <PUBCHEM_CACTVS_HBOND_DONOR>
0

> <PUBCHEM_CACTVS_ROTATABLE_BOND>
36

> <PUBCHEM_CACTVS_SUBSKEYS>
AAADcfB8PAAAAAAAAACAAAAAAAAAAAAAAAAAAAAAAAAAAAAAAAAAGgAAAAAADQCggAICCAAABACIACDSCAAAAAAAAAAICAAAAEAABAIAIAACEAAEAAAAIYGAwOAMAAAAAAAAAAAAAAAAAAAAAAAAAAAAAA==

> <PUBCHEM_IUPAC_OPENEYE_NAME>
O4-[[(E)-4-(6-methylheptoxy)-4-oxo-but-2-enoyl]oxy-dioctyl-stannyl] O1-(6-methylheptyl) (E)-but-2-enedioate

> <PUBCHEM_IUPAC_CAS_NAME>
(E)-2-butenedioic acid O4-[[(E)-4-(6-methylheptoxy)-1,4-dioxobut-2-enoxy]-dioctylstannyl] ester O1-(6-methylheptyl) ester

> <PUBCHEM_IUPAC_NAME_MARKUP>
4-<I>O</I>-[[(<I>E</I>)-4-(6-methylheptoxy)-4-oxobut-2-enoyl]oxy-dioctylstannyl] 1-<I>O</I>-(6-methylheptyl) (<I>E</I>)-but-2-enedioate

> <PUBCHEM_IUPAC_NAME>
4-O-[[(E)-4-(6-methylheptoxy)-4-oxobut-2-enoyl]oxy-dioctylstannyl] 1-O-(6-methylheptyl) (E)-but-2-enedioate

> <PUBCHEM_IUPAC_SYSTEMATIC_NAME>
O4-[[(E)-4-(6-methylheptoxy)-4-oxidanylidene-but-2-enoyl]oxy-dioctyl-stannyl] O1-(6-methylheptyl) (E)-but-2-enedioate

> <PUBCHEM_IUPAC_TRADITIONAL_NAME>
(E)-but-2-enedioic acid O4-[[(E)-4-keto-4-(6-methylheptoxy)but-2-enoyl]oxy-dioctyl-stannyl] ester O1-(6-methylheptyl) ester

> <PUBCHEM_IUPAC_INCHI>
InChI=1S/2C12H20O4.2C8H17.Sn/c2*1-10(2)6-4-3-5-9-16-12(15)8-7-11(13)14;2*1-3-5-7-8-6-4-2;/h2*7-8,10H,3-6,9H2,1-2H3,(H,13,14);2*1,3-8H2,2H3;/q;;;;+2/p-2/b2*8-7+;;;

> <PUBCHEM_IUPAC_INCHIKEY>
XITDVRBPGQGVFK-FTHVFMQUSA-L

> <PUBCHEM_EXACT_MASS>
800.424922

> <PUBCHEM_MOLECULAR_FORMULA>
C40H72O8Sn

> <PUBCHEM_MOLECULAR_WEIGHT>
799.7

> <PUBCHEM_SMILES>
CCCCCCCC[Sn](OC(=O)/C=C/C(=O)OCCCCCC(C)C)(OC(=O)/C=C/C(=O)OCCCCCC(C)C)CCCCCCCC

> <PUBCHEM_OPENEYE_CAN_SMILES>
CCCCCCCC[Sn](CCCCCCCC)(OC(=O)C=CC(=O)OCCCCCC(C)C)OC(=O)C=CC(=O)OCCCCCC(C)C

> <PUBCHEM_OPENEYE_ISO_SMILES>
CCCCCCCC[Sn](OC(=O)/C=C/C(=O)OCCCCCC(C)C)(OC(=O)/C=C/C(=O)OCCCCCC(C)C)CCCCCCCC

> <PUBCHEM_CACTVS_TPSA>
105

> <PUBCHEM_MONOISOTOPIC_WEIGHT>
800.424922

> <PUBCHEM_TOTAL_CHARGE>
0

> <PUBCHEM_HEAVY_ATOM_COUNT>
49

> <PUBCHEM_ATOM_DEF_STEREO_COUNT>
0

> <PUBCHEM_ATOM_UDEF_STEREO_COUNT>
0

> <PUBCHEM_BOND_DEF_STEREO_COUNT>
2

> <PUBCHEM_BOND_UDEF_STEREO_COUNT>
0

> <PUBCHEM_ISOTOPIC_ATOM_COUNT>
0

> <PUBCHEM_COMPONENT_COUNT>
1

> <PUBCHEM_CACTVS_TAUTO_COUNT>
-1

> <PUBCHEM_COORDINATE_TYPE>
1
5
255

$$$$
