16684108
  -OEChem-04042505492D

 85 84  0     0  0  0  0  0  0999 V2000
    8.9282    0.0000    0.0000 Sn  0  0  0  0  0  0  0  0  0  0  0  0
    9.7942    0.5000    0.0000 O   0  0  0  0  0  0  0  0  0  0  0  0
    8.0622   -0.5000    0.0000 O   0  0  0  0  0  0  0  0  0  0  0  0
   10.6603   -1.0000    0.0000 O   0  0  0  0  0  0  0  0  0  0  0  0
    7.1962    1.0000    0.0000 O   0  0  0  0  0  0  0  0  0  0  0  0
   14.1244   -0.0000    0.0000 O   0  0  0  0  0  0  0  0  0  0  0  0
    3.7320   -0.0000    0.0000 O   0  0  0  0  0  0  0  0  0  0  0  0
   13.2583    1.5000    0.0000 O   0  0  0  0  0  0  0  0  0  0  0  0
    4.5981   -1.5000    0.0000 O   0  0  0  0  0  0  0  0  0  0  0  0
    8.4282    0.8660    0.0000 C   0  0  0  0  0  0  0  0  0  0  0  0
    9.4282   -0.8660    0.0000 C   0  0  0  0  0  0  0  0  0  0  0  0
    8.9282    1.7320    0.0000 C   0  0  0  0  0  0  0  0  0  0  0  0
    8.9282   -1.7320    0.0000 C   0  0  0  0  0  0  0  0  0  0  0  0
    8.4282    2.5981    0.0000 C   0  0  0  0  0  0  0  0  0  0  0  0
    9.4282   -2.5981    0.0000 C   0  0  0  0  0  0  0  0  0  0  0  0
    8.9282    3.4641    0.0000 C   0  0  0  0  0  0  0  0  0  0  0  0
    8.9282   -3.4641    0.0000 C   0  0  0  0  0  0  0  0  0  0  0  0
    8.4282    4.3301    0.0000 C   0  0  0  0  0  0  0  0  0  0  0  0
    9.4282   -4.3301    0.0000 C   0  0  0  0  0  0  0  0  0  0  0  0
    8.9282    5.1962    0.0000 C   0  0  0  0  0  0  0  0  0  0  0  0
    8.9282   -5.1962    0.0000 C   0  0  0  0  0  0  0  0  0  0  0  0
    8.4282    6.0622    0.0000 C   0  0  0  0  0  0  0  0  0  0  0  0
    9.4282   -6.0622    0.0000 C   0  0  0  0  0  0  0  0  0  0  0  0
   10.6603    0.0000    0.0000 C   0  0  0  0  0  0  0  0  0  0  0  0
    7.1962   -0.0000    0.0000 C   0  0  0  0  0  0  0  0  0  0  0  0
    8.9282    6.9282    0.0000 C   0  0  0  0  0  0  0  0  0  0  0  0
    8.9282   -6.9282    0.0000 C   0  0  0  0  0  0  0  0  0  0  0  0
   11.5263    0.5000    0.0000 C   0  0  0  0  0  0  0  0  0  0  0  0
    6.3301   -0.5000    0.0000 C   0  0  0  0  0  0  0  0  0  0  0  0
   12.3923   -0.0000    0.0000 C   0  0  0  0  0  0  0  0  0  0  0  0
    5.4641   -0.0000    0.0000 C   0  0  0  0  0  0  0  0  0  0  0  0
   13.2583    0.5000    0.0000 C   0  0  0  0  0  0  0  0  0  0  0  0
    4.5981   -0.5000    0.0000 C   0  0  0  0  0  0  0  0  0  0  0  0
   14.9904    0.5000    0.0000 C   0  0  0  0  0  0  0  0  0  0  0  0
    2.8660   -0.5000    0.0000 C   0  0  0  0  0  0  0  0  0  0  0  0
   15.8564   -0.0000    0.0000 C   0  0  0  0  0  0  0  0  0  0  0  0
    2.0000   -0.0000    0.0000 C   0  0  0  0  0  0  0  0  0  0  0  0
    7.9533    1.2646    0.0000 H   0  0  0  0  0  0  0  0  0  0  0  0
    7.9533    0.4675    0.0000 H   0  0  0  0  0  0  0  0  0  0  0  0
    9.9032   -1.2646    0.0000 H   0  0  0  0  0  0  0  0  0  0  0  0
    9.9032   -0.4675    0.0000 H   0  0  0  0  0  0  0  0  0  0  0  0
    9.4032    1.3335    0.0000 H   0  0  0  0  0  0  0  0  0  0  0  0
    9.4032    2.1306    0.0000 H   0  0  0  0  0  0  0  0  0  0  0  0
    8.4533   -1.3335    0.0000 H   0  0  0  0  0  0  0  0  0  0  0  0
    8.4533   -2.1306    0.0000 H   0  0  0  0  0  0  0  0  0  0  0  0
    7.9533    2.9966    0.0000 H   0  0  0  0  0  0  0  0  0  0  0  0
    7.9533    2.1996    0.0000 H   0  0  0  0  0  0  0  0  0  0  0  0
    9.9032   -2.9966    0.0000 H   0  0  0  0  0  0  0  0  0  0  0  0
    9.9032   -2.1996    0.0000 H   0  0  0  0  0  0  0  0  0  0  0  0
    9.4032    3.0656    0.0000 H   0  0  0  0  0  0  0  0  0  0  0  0
    9.4032    3.8626    0.0000 H   0  0  0  0  0  0  0  0  0  0  0  0
    8.4533   -3.0656    0.0000 H   0  0  0  0  0  0  0  0  0  0  0  0
    8.4533   -3.8626    0.0000 H   0  0  0  0  0  0  0  0  0  0  0  0
    7.9533    4.7287    0.0000 H   0  0  0  0  0  0  0  0  0  0  0  0
    7.9533    3.9316    0.0000 H   0  0  0  0  0  0  0  0  0  0  0  0
    9.9032   -4.7287    0.0000 H   0  0  0  0  0  0  0  0  0  0  0  0
    9.9032   -3.9316    0.0000 H   0  0  0  0  0  0  0  0  0  0  0  0
    9.4032    4.7976    0.0000 H   0  0  0  0  0  0  0  0  0  0  0  0
    9.4032    5.5947    0.0000 H   0  0  0  0  0  0  0  0  0  0  0  0
    8.4533   -4.7976    0.0000 H   0  0  0  0  0  0  0  0  0  0  0  0
    8.4533   -5.5947    0.0000 H   0  0  0  0  0  0  0  0  0  0  0  0
    7.9533    6.4607    0.0000 H   0  0  0  0  0  0  0  0  0  0  0  0
    7.9533    5.6636    0.0000 H   0  0  0  0  0  0  0  0  0  0  0  0
    9.9032   -6.4607    0.0000 H   0  0  0  0  0  0  0  0  0  0  0  0
    9.9032   -5.6636    0.0000 H   0  0  0  0  0  0  0  0  0  0  0  0
    9.4651    6.6182    0.0000 H   0  0  0  0  0  0  0  0  0  0  0  0
    9.2382    7.4651    0.0000 H   0  0  0  0  0  0  0  0  0  0  0  0
    8.3913    7.2382    0.0000 H   0  0  0  0  0  0  0  0  0  0  0  0
    8.3913   -6.6182    0.0000 H   0  0  0  0  0  0  0  0  0  0  0  0
    8.6182   -7.4651    0.0000 H   0  0  0  0  0  0  0  0  0  0  0  0
    9.4651   -7.2382    0.0000 H   0  0  0  0  0  0  0  0  0  0  0  0
   11.5263    1.1200    0.0000 H   0  0  0  0  0  0  0  0  0  0  0  0
    6.3301   -1.1200    0.0000 H   0  0  0  0  0  0  0  0  0  0  0  0
   12.3923   -0.6200    0.0000 H   0  0  0  0  0  0  0  0  0  0  0  0
    5.4641    0.6200    0.0000 H   0  0  0  0  0  0  0  0  0  0  0  0
   15.3889    0.9749    0.0000 H   0  0  0  0  0  0  0  0  0  0  0  0
   14.5919    0.9749    0.0000 H   0  0  0  0  0  0  0  0  0  0  0  0
    2.4675   -0.9749    0.0000 H   0  0  0  0  0  0  0  0  0  0  0  0
    3.2646   -0.9749    0.0000 H   0  0  0  0  0  0  0  0  0  0  0  0
   15.5464   -0.5369    0.0000 H   0  0  0  0  0  0  0  0  0  0  0  0
   16.3933   -0.3100    0.0000 H   0  0  0  0  0  0  0  0  0  0  0  0
   16.1664    0.5369    0.0000 H   0  0  0  0  0  0  0  0  0  0  0  0
    2.3100    0.5369    0.0000 H   0  0  0  0  0  0  0  0  0  0  0  0
    1.4631    0.3100    0.0000 H   0  0  0  0  0  0  0  0  0  0  0  0
    1.6900   -0.5369    0.0000 H   0  0  0  0  0  0  0  0  0  0  0  0
  1  2  1  0  0  0  0
  1  3  1  0  0  0  0
  1 10  1  0  0  0  0
  1 11  1  0  0  0  0
  2 24  1  0  0  0  0
  3 25  1  0  0  0  0
  4 24  2  0  0  0  0
  5 25  2  0  0  0  0
  6 32  1  0  0  0  0
  6 34  1  0  0  0  0
  7 33  1  0  0  0  0
  7 35  1  0  0  0  0
  8 32  2  0  0  0  0
  9 33  2  0  0  0  0
 10 12  1  0  0  0  0
 10 38  1  0  0  0  0
 10 39  1  0  0  0  0
 11 13  1  0  0  0  0
 11 40  1  0  0  0  0
 11 41  1  0  0  0  0
 12 14  1  0  0  0  0
 12 42  1  0  0  0  0
 12 43  1  0  0  0  0
 13 15  1  0  0  0  0
 13 44  1  0  0  0  0
 13 45  1  0  0  0  0
 14 16  1  0  0  0  0
 14 46  1  0  0  0  0
 14 47  1  0  0  0  0
 15 17  1  0  0  0  0
 15 48  1  0  0  0  0
 15 49  1  0  0  0  0
 16 18  1  0  0  0  0
 16 50  1  0  0  0  0
 16 51  1  0  0  0  0
 17 19  1  0  0  0  0
 17 52  1  0  0  0  0
 17 53  1  0  0  0  0
 18 20  1  0  0  0  0
 18 54  1  0  0  0  0
 18 55  1  0  0  0  0
 19 21  1  0  0  0  0
 19 56  1  0  0  0  0
 19 57  1  0  0  0  0
 20 22  1  0  0  0  0
 20 58  1  0  0  0  0
 20 59  1  0  0  0  0
 21 23  1  0  0  0  0
 21 60  1  0  0  0  0
 21 61  1  0  0  0  0
 22 26  1  0  0  0  0
 22 62  1  0  0  0  0
 22 63  1  0  0  0  0
 23 27  1  0  0  0  0
 23 64  1  0  0  0  0
 23 65  1  0  0  0  0
 24 28  1  0  0  0  0
 25 29  1  0  0  0  0
 26 66  1  0  0  0  0
 26 67  1  0  0  0  0
 26 68  1  0  0  0  0
 27 69  1  0  0  0  0
 27 70  1  0  0  0  0
 27 71  1  0  0  0  0
 28 30  2  0  0  0  0
 28 72  1  0  0  0  0
 29 31  2  0  0  0  0
 29 73  1  0  0  0  0
 30 32  1  0  0  0  0
 30 74  1  0  0  0  0
 31 33  1  0  0  0  0
 31 75  1  0  0  0  0
 34 36  1  0  0  0  0
 34 76  1  0  0  0  0
 34 77  1  0  0  0  0
 35 37  1  0  0  0  0
 35 78  1  0  0  0  0
 35 79  1  0  0  0  0
 36 80  1  0  0  0  0
 36 81  1  0  0  0  0
 36 82  1  0  0  0  0
 37 83  1  0  0  0  0
 37 84  1  0  0  0  0
 37 85  1  0  0  0  0
M  END
> <PUBCHEM_COMPOUND_CID>
16684108

> <PUBCHEM_COMPOUND_CANONICALIZED>
1

> <PUBCHEM_CACTVS_COMPLEXITY>
657

> <PUBCHEM_CACTVS_HBOND_ACCEPTOR>
8

> <PUBCHEM_CACTVS_HBOND_DONOR>
0

> <PUBCHEM_CACTVS_ROTATABLE_BOND>
26

> <PUBCHEM_CACTVS_SUBSKEYS>
AAADcfB4PAAAAAAAAACAAAAAAAAAAAAAAAAAAAAAAAAAAAAAAAAAGgAAAAAACACggAICCAAABACIACDSCAAAAAAAAAAICAAAAEAABAIAIAACEAAAAAAAIYEAgIAAAAAAAAAAAAAAAAAAAAAAAAAAAAAAAA==

> <PUBCHEM_IUPAC_OPENEYE_NAME>
O4-[[(E)-4-ethoxy-4-oxo-but-2-enoyl]oxy-dioctyl-stannyl] O1-ethyl (E)-but-2-enedioate

> <PUBCHEM_IUPAC_CAS_NAME>
(E)-2-butenedioic acid O4-[[(E)-4-ethoxy-1,4-dioxobut-2-enoxy]-dioctylstannyl] ester O1-ethyl ester

> <PUBCHEM_IUPAC_NAME_MARKUP>
4-<I>O</I>-[[(<I>E</I>)-4-ethoxy-4-oxobut-2-enoyl]oxy-dioctylstannyl] 1-<I>O</I>-ethyl (<I>E</I>)-but-2-enedioate

> <PUBCHEM_IUPAC_NAME>
4-O-[[(E)-4-ethoxy-4-oxobut-2-enoyl]oxy-dioctylstannyl] 1-O-ethyl (E)-but-2-enedioate

> <PUBCHEM_IUPAC_SYSTEMATIC_NAME>
O4-[[(E)-4-ethoxy-4-oxidanylidene-but-2-enoyl]oxy-dioctyl-stannyl] O1-ethyl (E)-but-2-enedioate

> <PUBCHEM_IUPAC_TRADITIONAL_NAME>
(E)-but-2-enedioic acid O4-[[(E)-4-ethoxy-4-keto-but-2-enoyl]oxy-dioctyl-stannyl] ester O1-ethyl ester

> <PUBCHEM_IUPAC_INCHI>
InChI=1S/2C8H17.2C6H8O4.Sn/c2*1-3-5-7-8-6-4-2;2*1-2-10-6(9)4-3-5(7)8;/h2*1,3-8H2,2H3;2*3-4H,2H2,1H3,(H,7,8);/q;;;;+2/p-2/b;;2*4-3+;

> <PUBCHEM_IUPAC_INCHIKEY>
DRZLVZYYZKVLCK-SEYKUYGWSA-L

> <PUBCHEM_EXACT_MASS>
632.237121

> <PUBCHEM_MOLECULAR_FORMULA>
C28H48O8Sn

> <PUBCHEM_MOLECULAR_WEIGHT>
631.4

> <PUBCHEM_SMILES>
CCCCCCCC[Sn](OC(=O)/C=C/C(=O)OCC)(OC(=O)/C=C/C(=O)OCC)CCCCCCCC

> <PUBCHEM_OPENEYE_CAN_SMILES>
CCCCCCCC[Sn](CCCCCCCC)(OC(=O)C=CC(=O)OCC)OC(=O)C=CC(=O)OCC

> <PUBCHEM_OPENEYE_ISO_SMILES>
CCCCCCCC[Sn](OC(=O)/C=C/C(=O)OCC)(OC(=O)/C=C/C(=O)OCC)CCCCCCCC

> <PUBCHEM_CACTVS_TPSA>
105

> <PUBCHEM_MONOISOTOPIC_WEIGHT>
632.237121

> <PUBCHEM_TOTAL_CHARGE>
0

> <PUBCHEM_HEAVY_ATOM_COUNT>
37

> <PUBCHEM_ATOM_DEF_STEREO_COUNT>
0

> <PUBCHEM_ATOM_UDEF_STEREO_COUNT>
0

> <PUBCHEM_BOND_DEF_STEREO_COUNT>
2

> <PUBCHEM_BOND_UDEF_STEREO_COUNT>
0

> <PUBCHEM_ISOTOPIC_ATOM_COUNT>
0

> <PUBCHEM_COMPONENT_COUNT>
1

> <PUBCHEM_CACTVS_TAUTO_COUNT>
-1

> <PUBCHEM_COORDINATE_TYPE>
1
5
255

$$$$
