168266275
  -OEChem-04042512382D

124134  0     1  0  0  0  0  0999 V2000
    1.4595    2.1449    0.0000 F   0  0  0  0  0  0  0  0  0  0  0  0
    1.4595   12.3821    0.0000 F   0  0  0  0  0  0  0  0  0  0  0  0
    0.0000    3.5821    0.0000 F   0  0  0  0  0  0  0  0  0  0  0  0
    0.0000   13.8193    0.0000 F   0  0  0  0  0  0  0  0  0  0  0  0
    7.3978    2.6236    0.0000 O   0  0  0  0  0  0  0  0  0  0  0  0
    7.3978   12.8608    0.0000 O   0  0  0  0  0  0  0  0  0  0  0  0
    3.4161    2.6918    0.0000 O   0  0  0  0  0  0  0  0  0  0  0  0
    3.4161   12.9289    0.0000 O   0  0  0  0  0  0  0  0  0  0  0  0
    8.3020    4.1205    0.0000 O   0  0  0  0  0  0  0  0  0  0  0  0
    8.3020   14.3576    0.0000 O   0  0  0  0  0  0  0  0  0  0  0  0
    8.3178    6.1687    0.0000 O   0  0  0  0  0  0  0  0  0  0  0  0
    8.3178   16.4059    0.0000 O   0  0  0  0  0  0  0  0  0  0  0  0
    5.6658    2.6236    0.0000 N   0  0  0  0  0  0  0  0  0  0  0  0
    5.6658   12.8608    0.0000 N   0  0  0  0  0  0  0  0  0  0  0  0
    4.7998    4.1236    0.0000 N   0  0  3  0  0  0  0  0  0  0  0  0
    4.7998   14.3608    0.0000 N   0  0  3  0  0  0  0  0  0  0  0  0
    5.6658    4.6236    0.0000 N   0  0  0  0  0  0  0  0  0  0  0  0
    5.6658   14.8608    0.0000 N   0  0  0  0  0  0  0  0  0  0  0  0
    5.6658    1.6236    0.0000 C   0  0  0  0  0  0  0  0  0  0  0  0
    5.6658   11.8608    0.0000 C   0  0  0  0  0  0  0  0  0  0  0  0
    6.6658    1.6200    0.0000 C   0  0  0  0  0  0  0  0  0  0  0  0
    5.6622    0.6236    0.0000 C   0  0  0  0  0  0  0  0  0  0  0  0
    6.6658   11.8572    0.0000 C   0  0  0  0  0  0  0  0  0  0  0  0
    5.6622   10.8608    0.0000 C   0  0  0  0  0  0  0  0  0  0  0  0
    6.6622    0.6200    0.0000 C   0  0  0  0  0  0  0  0  0  0  0  0
    6.6622   10.8572    0.0000 C   0  0  0  0  0  0  0  0  0  0  0  0
    4.5715    1.7258    0.0000 C   0  0  0  0  0  0  0  0  0  0  0  0
    4.5715   11.9630    0.0000 C   0  0  0  0  0  0  0  0  0  0  0  0
    4.7998    3.1236    0.0000 C   0  0  0  0  0  0  0  0  0  0  0  0
    4.7998   13.3608    0.0000 C   0  0  0  0  0  0  0  0  0  0  0  0
    6.5318    3.1236    0.0000 C   0  0  0  0  0  0  0  0  0  0  0  0
    6.5318   13.3608    0.0000 C   0  0  0  0  0  0  0  0  0  0  0  0
    6.5318    4.1236    0.0000 C   0  0  0  0  0  0  0  0  0  0  0  0
    6.5318   14.3608    0.0000 C   0  0  0  0  0  0  0  0  0  0  0  0
    3.9337    4.6236    0.0000 C   0  0  3  0  0  0  0  0  0  0  0  0
    3.9337   14.8608    0.0000 C   0  0  3  0  0  0  0  0  0  0  0  0
    3.8644    1.0187    0.0000 C   0  0  0  0  0  0  0  0  0  0  0  0
    3.8644   11.2559    0.0000 C   0  0  0  0  0  0  0  0  0  0  0  0
    2.9678    4.3648    0.0000 C   0  0  0  0  0  0  0  0  0  0  0  0
    2.9678   14.6020    0.0000 C   0  0  0  0  0  0  0  0  0  0  0  0
    3.1573    1.7258    0.0000 C   0  0  0  0  0  0  0  0  0  0  0  0
    3.1573   11.9630    0.0000 C   0  0  0  0  0  0  0  0  0  0  0  0
    4.0642    5.6150    0.0000 C   0  0  0  0  0  0  0  0  0  0  0  0
    4.0642   15.8522    0.0000 C   0  0  0  0  0  0  0  0  0  0  0  0
    7.4418    4.6304    0.0000 C   0  0  0  0  0  0  0  0  0  0  0  0
    7.4418   14.8676    0.0000 C   0  0  0  0  0  0  0  0  0  0  0  0
    5.6497    5.6651    0.0000 C   0  0  0  0  0  0  0  0  0  0  0  0
    5.6497   15.9023    0.0000 C   0  0  0  0  0  0  0  0  0  0  0  0
    2.7090    3.3988    0.0000 C   0  0  0  0  0  0  0  0  0  0  0  0
    2.7090   13.6360    0.0000 C   0  0  0  0  0  0  0  0  0  0  0  0
    7.4498    5.6720    0.0000 C   0  0  0  0  0  0  0  0  0  0  0  0
    7.4498   15.9092    0.0000 C   0  0  0  0  0  0  0  0  0  0  0  0
    6.5478    6.1929    0.0000 C   0  0  0  0  0  0  0  0  0  0  0  0
    6.5478   16.4300    0.0000 C   0  0  0  0  0  0  0  0  0  0  0  0
    3.2709    6.2238    0.0000 C   0  0  0  0  0  0  0  0  0  0  0  0
    3.2709   16.4610    0.0000 C   0  0  0  0  0  0  0  0  0  0  0  0
    2.2427    5.1126    0.0000 C   0  0  0  0  0  0  0  0  0  0  0  0
    2.2427   15.3498    0.0000 C   0  0  0  0  0  0  0  0  0  0  0  0
    4.9881    5.9977    0.0000 C   0  0  0  0  0  0  0  0  0  0  0  0
    4.9881   16.2349    0.0000 C   0  0  0  0  0  0  0  0  0  0  0  0
    1.7071    3.1138    0.0000 C   0  0  0  0  0  0  0  0  0  0  0  0
    1.7071   13.3510    0.0000 C   0  0  0  0  0  0  0  0  0  0  0  0
    1.2345    4.8508    0.0000 C   0  0  0  0  0  0  0  0  0  0  0  0
    1.2345   15.0879    0.0000 C   0  0  0  0  0  0  0  0  0  0  0  0
    3.4014    7.2152    0.0000 C   0  0  0  0  0  0  0  0  0  0  0  0
    3.4014   17.4524    0.0000 C   0  0  0  0  0  0  0  0  0  0  0  0
    2.3470    5.8411    0.0000 C   0  0  0  0  0  0  0  0  0  0  0  0
    2.3470   16.0783    0.0000 C   0  0  0  0  0  0  0  0  0  0  0  0
    5.1187    6.9892    0.0000 C   0  0  0  0  0  0  0  0  0  0  0  0
    5.1187   17.2263    0.0000 C   0  0  0  0  0  0  0  0  0  0  0  0
    0.9649    3.8446    0.0000 C   0  0  0  0  0  0  0  0  0  0  0  0
    0.9649   14.0818    0.0000 C   0  0  0  0  0  0  0  0  0  0  0  0
    4.3253    7.5979    0.0000 C   0  0  0  0  0  0  0  0  0  0  0  0
    4.3253   17.8351    0.0000 C   0  0  0  0  0  0  0  0  0  0  0  0
    7.2858    1.6178    0.0000 H   0  0  0  0  0  0  0  0  0  0  0  0
    6.6680    2.2400    0.0000 H   0  0  0  0  0  0  0  0  0  0  0  0
    5.0422    0.6258    0.0000 H   0  0  0  0  0  0  0  0  0  0  0  0
    5.6599    0.0036    0.0000 H   0  0  0  0  0  0  0  0  0  0  0  0
    7.2858   11.8549    0.0000 H   0  0  0  0  0  0  0  0  0  0  0  0
    6.6680   12.4772    0.0000 H   0  0  0  0  0  0  0  0  0  0  0  0
    5.0422   10.8630    0.0000 H   0  0  0  0  0  0  0  0  0  0  0  0
    5.6599   10.2408    0.0000 H   0  0  0  0  0  0  0  0  0  0  0  0
    6.6599    0.0000    0.0000 H   0  0  0  0  0  0  0  0  0  0  0  0
    7.2822    0.6178    0.0000 H   0  0  0  0  0  0  0  0  0  0  0  0
    6.6599   10.2372    0.0000 H   0  0  0  0  0  0  0  0  0  0  0  0
    7.2822   10.8549    0.0000 H   0  0  0  0  0  0  0  0  0  0  0  0
    4.3612    2.3090    0.0000 H   0  0  0  0  0  0  0  0  0  0  0  0
    4.3612   12.5462    0.0000 H   0  0  0  0  0  0  0  0  0  0  0  0
    4.1892    3.2313    0.0000 H   0  0  0  0  0  0  0  0  0  0  0  0
    4.5877    2.5410    0.0000 H   0  0  0  0  0  0  0  0  0  0  0  0
    4.1892   13.4684    0.0000 H   0  0  0  0  0  0  0  0  0  0  0  0
    4.5877   12.7782    0.0000 H   0  0  0  0  0  0  0  0  0  0  0  0
    3.4676    5.0324    0.0000 H   0  0  0  0  0  0  0  0  0  0  0  0
    4.4898   15.1350    0.0000 H   0  0  0  0  0  0  0  0  0  0  0  0
    3.8644    0.3987    0.0000 H   0  0  0  0  0  0  0  0  0  0  0  0
    3.8644   10.6359    0.0000 H   0  0  0  0  0  0  0  0  0  0  0  0
    2.5954    1.9878    0.0000 H   0  0  0  0  0  0  0  0  0  0  0  0
    2.8016    1.2180    0.0000 H   0  0  0  0  0  0  0  0  0  0  0  0
    2.5954   12.2250    0.0000 H   0  0  0  0  0  0  0  0  0  0  0  0
    2.8016   11.4551    0.0000 H   0  0  0  0  0  0  0  0  0  0  0  0
    5.1092    5.9689    0.0000 H   0  0  0  0  0  0  0  0  0  0  0  0
    5.1092   16.2060    0.0000 H   0  0  0  0  0  0  0  0  0  0  0  0
    6.5454    6.8129    0.0000 H   0  0  0  0  0  0  0  0  0  0  0  0
    6.5454   17.0500    0.0000 H   0  0  0  0  0  0  0  0  0  0  0  0
    2.4101    5.7096    0.0000 H   0  0  0  0  0  0  0  0  0  0  0  0
    2.4101   15.9467    0.0000 H   0  0  0  0  0  0  0  0  0  0  0  0
    5.4800    5.6203    0.0000 H   0  0  0  0  0  0  0  0  0  0  0  0
    5.4800   15.8575    0.0000 H   0  0  0  0  0  0  0  0  0  0  0  0
    8.8425    4.4242    0.0000 H   0  0  0  0  0  0  0  0  0  0  0  0
    8.8425   14.6614    0.0000 H   0  0  0  0  0  0  0  0  0  0  0  0
    0.7978    5.2909    0.0000 H   0  0  0  0  0  0  0  0  0  0  0  0
    0.7978   15.5280    0.0000 H   0  0  0  0  0  0  0  0  0  0  0  0
    2.9096    7.5927    0.0000 H   0  0  0  0  0  0  0  0  0  0  0  0
    2.9096   17.8299    0.0000 H   0  0  0  0  0  0  0  0  0  0  0  0
    2.1098    6.4139    0.0000 H   0  0  0  0  0  0  0  0  0  0  0  0
    1.7742    5.6039    0.0000 H   0  0  0  0  0  0  0  0  0  0  0  0
    2.5843    5.2683    0.0000 H   0  0  0  0  0  0  0  0  0  0  0  0
    2.1098   16.6511    0.0000 H   0  0  0  0  0  0  0  0  0  0  0  0
    1.7742   15.8410    0.0000 H   0  0  0  0  0  0  0  0  0  0  0  0
    2.5843   15.5055    0.0000 H   0  0  0  0  0  0  0  0  0  0  0  0
    5.6915    7.2264    0.0000 H   0  0  0  0  0  0  0  0  0  0  0  0
    5.6915   17.4636    0.0000 H   0  0  0  0  0  0  0  0  0  0  0  0
    4.4062    8.2126    0.0000 H   0  0  0  0  0  0  0  0  0  0  0  0
    4.4062   18.4498    0.0000 H   0  0  0  0  0  0  0  0  0  0  0  0
  1 61  1  0  0  0  0
  2 62  1  0  0  0  0
  3 71  1  0  0  0  0
  4 72  1  0  0  0  0
  5 31  2  0  0  0  0
  6 32  2  0  0  0  0
  7 41  1  0  0  0  0
  7 49  1  0  0  0  0
  8 42  1  0  0  0  0
  8 50  1  0  0  0  0
  9 45  1  0  0  0  0
  9109  1  0  0  0  0
 10 46  1  0  0  0  0
 10110  1  0  0  0  0
 11 51  2  0  0  0  0
 12 52  2  0  0  0  0
 13 19  1  0  0  0  0
 13 29  1  0  0  0  0
 13 31  1  0  0  0  0
 14 20  1  0  0  0  0
 14 30  1  0  0  0  0
 14 32  1  0  0  0  0
 15 17  1  0  0  0  0
 15 29  1  0  0  0  0
 15 35  1  0  0  0  0
 16 18  1  0  0  0  0
 16 30  1  0  0  0  0
 16 36  1  0  0  0  0
 17 33  1  0  0  0  0
 17 47  1  0  0  0  0
 18 34  1  0  0  0  0
 18 48  1  0  0  0  0
 19 21  1  0  0  0  0
 19 22  1  0  0  0  0
 19 27  1  0  0  0  0
 20 23  1  0  0  0  0
 20 24  1  0  0  0  0
 20 28  1  0  0  0  0
 21 25  1  0  0  0  0
 21 75  1  0  0  0  0
 21 76  1  0  0  0  0
 22 25  1  0  0  0  0
 22 77  1  0  0  0  0
 22 78  1  0  0  0  0
 23 26  1  0  0  0  0
 23 79  1  0  0  0  0
 23 80  1  0  0  0  0
 24 26  1  0  0  0  0
 24 81  1  0  0  0  0
 24 82  1  0  0  0  0
 25 83  1  0  0  0  0
 25 84  1  0  0  0  0
 26 85  1  0  0  0  0
 26 86  1  0  0  0  0
 27 37  2  3  0  0  0
 27 87  1  0  0  0  0
 28 38  2  3  0  0  0
 28 88  1  0  0  0  0
 29 89  1  0  0  0  0
 29 90  1  0  0  0  0
 30 91  1  0  0  0  0
 30 92  1  0  0  0  0
 31 33  1  0  0  0  0
 32 34  1  0  0  0  0
 33 45  2  0  0  0  0
 34 46  2  0  0  0  0
 35 39  1  0  0  0  0
 35 43  1  0  0  0  0
 35 93  1  0  0  0  0
 36 40  1  0  0  0  0
 36 44  1  0  0  0  0
 36 94  1  0  0  0  0
 37 41  1  0  0  0  0
 37 95  1  0  0  0  0
 38 42  1  0  0  0  0
 38 96  1  0  0  0  0
 39 49  2  0  0  0  0
 39 57  1  0  0  0  0
 40 50  2  0  0  0  0
 40 58  1  0  0  0  0
 41 97  1  0  0  0  0
 41 98  1  0  0  0  0
 42 99  1  0  0  0  0
 42100  1  0  0  0  0
 43 55  1  0  0  0  0
 43 59  2  0  0  0  0
 44 56  1  0  0  0  0
 44 60  2  0  0  0  0
 45 51  1  0  0  0  0
 46 52  1  0  0  0  0
 47 53  2  0  0  0  0
 47101  1  0  0  0  0
 48 54  2  0  0  0  0
 48102  1  0  0  0  0
 49 61  1  0  0  0  0
 50 62  1  0  0  0  0
 51 53  1  0  0  0  0
 52 54  1  0  0  0  0
 53103  1  0  0  0  0
 54104  1  0  0  0  0
 55 65  2  0  0  0  0
 55 67  1  0  0  0  0
 56 66  2  0  0  0  0
 56 68  1  0  0  0  0
 57 63  2  0  0  0  0
 57105  1  0  0  0  0
 58 64  2  0  0  0  0
 58106  1  0  0  0  0
 59 69  1  0  0  0  0
 59107  1  0  0  0  0
 60 70  1  0  0  0  0
 60108  1  0  0  0  0
 61 71  2  0  0  0  0
 62 72  2  0  0  0  0
 63 71  1  0  0  0  0
 63111  1  0  0  0  0
 64 72  1  0  0  0  0
 64112  1  0  0  0  0
 65 73  1  0  0  0  0
 65113  1  0  0  0  0
 66 74  1  0  0  0  0
 66114  1  0  0  0  0
 67115  1  0  0  0  0
 67116  1  0  0  0  0
 67117  1  0  0  0  0
 68118  1  0  0  0  0
 68119  1  0  0  0  0
 68120  1  0  0  0  0
 69 73  2  0  0  0  0
 69121  1  0  0  0  0
 70 74  2  0  0  0  0
 70122  1  0  0  0  0
 73123  1  0  0  0  0
 74124  1  0  0  0  0
M  END
> <PUBCHEM_COMPOUND_CID>
168266275

> <PUBCHEM_COMPOUND_CANONICALIZED>
1

> <PUBCHEM_CACTVS_COMPLEXITY>
1040

> <PUBCHEM_CACTVS_HBOND_ACCEPTOR>
16

> <PUBCHEM_CACTVS_HBOND_DONOR>
2

> <PUBCHEM_CACTVS_ROTATABLE_BOND>
2

> <PUBCHEM_CACTVS_SUBSKEYS>
AAADcfB/vcAAAAAAAAAAAAAAAABgwAAAAAA8eMGCAAAAAACBVAAAHwAICAAADKzhmA4zBoMABgCIAqVWUAKCCAAgIgAciADMDMiMZiKEsTuWeCjuxxOIqceQwPAOgAAAAAAYAAAAAAAAADAAAAAAAAAAAA==

> <PUBCHEM_IUPAC_OPENEYE_NAME>
6,7-difluoro-17-hydroxy-2-(o-tolyl)spiro[9-oxa-1,14,21-triazatetracyclo[12.7.1.03,8.016,21]docosa-3(8),4,6,11,16,19-hexaene-13,1'-cyclobutane]-15,18-dione

> <PUBCHEM_IUPAC_CAS_NAME>
6,7-difluoro-17-hydroxy-2-(2-methylphenyl)spiro[9-oxa-1,14,21-triazatetracyclo[12.7.1.03,8.016,21]docosa-3(8),4,6,11,16,19-hexaene-13,1'-cyclobutane]-15,18-dione

> <PUBCHEM_IUPAC_NAME_MARKUP>
6,7-difluoro-17-hydroxy-2-(2-methylphenyl)spiro[9-oxa-1,14,21-triazatetracyclo[12.7.1.0<SUP>3,8</SUP>.0<SUP>16,21</SUP>]docosa-3(8),4,6,11,16,19-hexaene-13,1&apos;-cyclobutane]-15,18-dione

> <PUBCHEM_IUPAC_NAME>
6,7-difluoro-17-hydroxy-2-(2-methylphenyl)spiro[9-oxa-1,14,21-triazatetracyclo[12.7.1.03,8.016,21]docosa-3(8),4,6,11,16,19-hexaene-13,1'-cyclobutane]-15,18-dione

> <PUBCHEM_IUPAC_SYSTEMATIC_NAME>
6,7-bis(fluoranyl)-2-(2-methylphenyl)-17-oxidanyl-spiro[9-oxa-1,14,21-triazatetracyclo[12.7.1.03,8.016,21]docosa-3(8),4,6,11,16,19-hexaene-13,1'-cyclobutane]-15,18-dione

> <PUBCHEM_IUPAC_TRADITIONAL_NAME>
6,7-difluoro-17-hydroxy-2-(o-tolyl)spiro[9-oxa-1,14,21-triazatetracyclo[12.7.1.03,8.016,21]docosa-3(8),4,6,11,16,19-hexaene-13,1'-cyclobutane]-15,18-quinone

> <PUBCHEM_IUPAC_INCHI>
InChI=1S/2C28H25F2N3O4/c2*1-17-6-2-3-7-18(17)23-19-8-9-20(29)22(30)26(19)37-15-5-13-28(11-4-12-28)31-16-33(23)32-14-10-21(34)25(35)24(32)27(31)36/h2*2-3,5-10,13-14,23,35H,4,11-12,15-16H2,1H3

> <PUBCHEM_IUPAC_INCHIKEY>
ZVQJRKFHJFUCBR-UHFFFAOYSA-N

> <PUBCHEM_EXACT_MASS>
1010.36262522

> <PUBCHEM_MOLECULAR_FORMULA>
C56H50F4N6O8

> <PUBCHEM_MOLECULAR_WEIGHT>
1011.0

> <PUBCHEM_SMILES>
CC1=CC=CC=C1C2C3=C(C(=C(C=C3)F)F)OCC=CC4(CCC4)N5CN2N6C=CC(=O)C(=C6C5=O)O.CC1=CC=CC=C1C2C3=C(C(=C(C=C3)F)F)OCC=CC4(CCC4)N5CN2N6C=CC(=O)C(=C6C5=O)O

> <PUBCHEM_OPENEYE_CAN_SMILES>
CC1=CC=CC=C1C2C3=C(C(=C(C=C3)F)F)OCC=CC4(CCC4)N5CN2N6C=CC(=O)C(=C6C5=O)O.CC1=CC=CC=C1C2C3=C(C(=C(C=C3)F)F)OCC=CC4(CCC4)N5CN2N6C=CC(=O)C(=C6C5=O)O

> <PUBCHEM_OPENEYE_ISO_SMILES>
CC1=CC=CC=C1C2C3=C(C(=C(C=C3)F)F)OCC=CC4(CCC4)N5CN2N6C=CC(=O)C(=C6C5=O)O.CC1=CC=CC=C1C2C3=C(C(=C(C=C3)F)F)OCC=CC4(CCC4)N5CN2N6C=CC(=O)C(=C6C5=O)O

> <PUBCHEM_CACTVS_TPSA>
147

> <PUBCHEM_MONOISOTOPIC_WEIGHT>
1010.36262522

> <PUBCHEM_TOTAL_CHARGE>
0

> <PUBCHEM_HEAVY_ATOM_COUNT>
74

> <PUBCHEM_ATOM_DEF_STEREO_COUNT>
0

> <PUBCHEM_ATOM_UDEF_STEREO_COUNT>
2

> <PUBCHEM_BOND_DEF_STEREO_COUNT>
0

> <PUBCHEM_BOND_UDEF_STEREO_COUNT>
2

> <PUBCHEM_ISOTOPIC_ATOM_COUNT>
0

> <PUBCHEM_COMPONENT_COUNT>
2

> <PUBCHEM_CACTVS_TAUTO_COUNT>
-1

> <PUBCHEM_COORDINATE_TYPE>
1
5
255

> <PUBCHEM_BONDANNOTATIONS>
17  33  8
17  47  8
18  34  8
18  48  8
27  37  1
28  38  1
33  45  8
34  46  8
35  43  3
36  44  3
39  49  8
39  57  8
40  50  8
40  58  8
43  55  8
43  59  8
44  56  8
44  60  8
45  51  8
46  52  8
47  53  8
48  54  8
49  61  8
50  62  8
51  53  8
52  54  8
55  65  8
56  66  8
57  63  8
58  64  8
59  69  8
60  70  8
61  71  8
62  72  8
63  71  8
64  72  8
65  73  8
66  74  8
69  73  8
70  74  8

$$$$
