168531
  -OEChem-04042505512D

 34 32  0     0  0  0  0  0  0999 V2000
    3.1350    0.3100    0.0000 O   0  0  0  0  0  0  0  0  0  0  0  0
    0.5369    5.7850    0.0000 O   0  0  0  0  0  0  0  0  0  0  0  0
    4.8671    1.3100    0.0000 O   0  0  0  0  0  0  0  0  0  0  0  0
    1.4030    1.3100    0.0000 O   0  0  0  0  0  0  0  0  0  0  0  0
    1.4030    4.2850    0.0000 O   0  0  0  0  0  0  0  0  0  0  0  0
    4.0010    5.7850    0.0000 C   0  0  0  0  0  0  0  0  0  0  0  0
    3.1350    5.2850    0.0000 C   0  0  0  0  0  0  0  0  0  0  0  0
    4.8671    5.2850    0.0000 C   0  0  0  0  0  0  0  0  0  0  0  0
    2.2690    5.7850    0.0000 C   0  0  0  0  0  0  0  0  0  0  0  0
    5.7331    5.7850    0.0000 C   0  0  0  0  0  0  0  0  0  0  0  0
    3.1350    1.3100    0.0000 C   0  0  0  0  0  0  0  0  0  0  0  0
    1.4030    5.2850    0.0000 C   0  0  0  0  0  0  0  0  0  0  0  0
    4.0010    1.8100    0.0000 C   0  0  0  0  0  0  0  0  0  0  0  0
    2.2690    1.8100    0.0000 C   0  0  0  0  0  0  0  0  0  0  0  0
    4.3996    6.2599    0.0000 H   0  0  0  0  0  0  0  0  0  0  0  0
    3.6025    6.2599    0.0000 H   0  0  0  0  0  0  0  0  0  0  0  0
    2.7365    4.8100    0.0000 H   0  0  0  0  0  0  0  0  0  0  0  0
    3.5335    4.8100    0.0000 H   0  0  0  0  0  0  0  0  0  0  0  0
    4.4685    4.8100    0.0000 H   0  0  0  0  0  0  0  0  0  0  0  0
    5.2656    4.8100    0.0000 H   0  0  0  0  0  0  0  0  0  0  0  0
    2.6675    6.2599    0.0000 H   0  0  0  0  0  0  0  0  0  0  0  0
    1.8705    6.2599    0.0000 H   0  0  0  0  0  0  0  0  0  0  0  0
    6.0431    5.2480    0.0000 H   0  0  0  0  0  0  0  0  0  0  0  0
    6.2700    6.0950    0.0000 H   0  0  0  0  0  0  0  0  0  0  0  0
    5.4231    6.3219    0.0000 H   0  0  0  0  0  0  0  0  0  0  0  0
    3.6720    1.0000    0.0000 H   0  0  0  0  0  0  0  0  0  0  0  0
    4.3996    2.2849    0.0000 H   0  0  0  0  0  0  0  0  0  0  0  0
    3.6025    2.2849    0.0000 H   0  0  0  0  0  0  0  0  0  0  0  0
    2.6675    2.2849    0.0000 H   0  0  0  0  0  0  0  0  0  0  0  0
    1.8705    2.2849    0.0000 H   0  0  0  0  0  0  0  0  0  0  0  0
    2.5981    0.0000    0.0000 H   0  0  0  0  0  0  0  0  0  0  0  0
    0.0000    5.4750    0.0000 H   0  0  0  0  0  0  0  0  0  0  0  0
    5.4040    1.6200    0.0000 H   0  0  0  0  0  0  0  0  0  0  0  0
    0.8660    1.6200    0.0000 H   0  0  0  0  0  0  0  0  0  0  0  0
  1 11  1  0  0  0  0
  1 31  1  0  0  0  0
  2 12  1  0  0  0  0
  2 32  1  0  0  0  0
  3 13  1  0  0  0  0
  3 33  1  0  0  0  0
  4 14  1  0  0  0  0
  4 34  1  0  0  0  0
  5 12  2  0  0  0  0
  6  7  1  0  0  0  0
  6  8  1  0  0  0  0
  6 15  1  0  0  0  0
  6 16  1  0  0  0  0
  7  9  1  0  0  0  0
  7 17  1  0  0  0  0
  7 18  1  0  0  0  0
  8 10  1  0  0  0  0
  8 19  1  0  0  0  0
  8 20  1  0  0  0  0
  9 12  1  0  0  0  0
  9 21  1  0  0  0  0
  9 22  1  0  0  0  0
 10 23  1  0  0  0  0
 10 24  1  0  0  0  0
 10 25  1  0  0  0  0
 11 13  1  0  0  0  0
 11 14  1  0  0  0  0
 11 26  1  0  0  0  0
 13 27  1  0  0  0  0
 13 28  1  0  0  0  0
 14 29  1  0  0  0  0
 14 30  1  0  0  0  0
M  END
> <PUBCHEM_COMPOUND_CID>
168531

> <PUBCHEM_COMPOUND_CANONICALIZED>
1

> <PUBCHEM_CACTVS_COMPLEXITY>
94.1

> <PUBCHEM_CACTVS_HBOND_ACCEPTOR>
5

> <PUBCHEM_CACTVS_HBOND_DONOR>
4

> <PUBCHEM_CACTVS_ROTATABLE_BOND>
6

> <PUBCHEM_CACTVS_SUBSKEYS>
AAADceBwOAAAAAAAAAAAAAAAAAAAAAAAAAAAAAAAAAAAAAAAAAAAGgAACAAACBSggAICCAAAAgAIAACQCAAAAAAAAAAAAAEAAAABEBIAAAAAQAAFAAABAAGISAAAAAAAAAAAAAAAAAAAAAAAAAAAAAAAAA==

> <PUBCHEM_IUPAC_OPENEYE_NAME>
glycerol;hexanoic acid

> <PUBCHEM_IUPAC_CAS_NAME>
hexanoic acid;propane-1,2,3-triol

> <PUBCHEM_IUPAC_NAME_MARKUP>
hexanoic acid;propane-1,2,3-triol

> <PUBCHEM_IUPAC_NAME>
hexanoic acid;propane-1,2,3-triol

> <PUBCHEM_IUPAC_SYSTEMATIC_NAME>
hexanoic acid;propane-1,2,3-triol

> <PUBCHEM_IUPAC_TRADITIONAL_NAME>
glycerol;hexanoic acid

> <PUBCHEM_IUPAC_INCHI>
InChI=1S/C6H12O2.C3H8O3/c1-2-3-4-5-6(7)8;4-1-3(6)2-5/h2-5H2,1H3,(H,7,8);3-6H,1-2H2

> <PUBCHEM_IUPAC_INCHIKEY>
YEAZPMHWNDZTLC-UHFFFAOYSA-N

> <PUBCHEM_EXACT_MASS>
208.13107373

> <PUBCHEM_MOLECULAR_FORMULA>
C9H20O5

> <PUBCHEM_MOLECULAR_WEIGHT>
208.25

> <PUBCHEM_SMILES>
CCCCCC(=O)O.C(C(CO)O)O

> <PUBCHEM_OPENEYE_CAN_SMILES>
CCCCCC(=O)O.C(C(CO)O)O

> <PUBCHEM_OPENEYE_ISO_SMILES>
CCCCCC(=O)O.C(C(CO)O)O

> <PUBCHEM_CACTVS_TPSA>
98

> <PUBCHEM_MONOISOTOPIC_WEIGHT>
208.13107373

> <PUBCHEM_TOTAL_CHARGE>
0

> <PUBCHEM_HEAVY_ATOM_COUNT>
14

> <PUBCHEM_ATOM_DEF_STEREO_COUNT>
0

> <PUBCHEM_ATOM_UDEF_STEREO_COUNT>
0

> <PUBCHEM_BOND_DEF_STEREO_COUNT>
0

> <PUBCHEM_BOND_UDEF_STEREO_COUNT>
0

> <PUBCHEM_ISOTOPIC_ATOM_COUNT>
0

> <PUBCHEM_COMPONENT_COUNT>
2

> <PUBCHEM_CACTVS_TAUTO_COUNT>
-1

> <PUBCHEM_COORDINATE_TYPE>
1
5
255

$$$$
