17046
  -OEChem-04042505342D

 32 33  0     1  0  0  0  0  0999 V2000
    2.0000    3.2500    0.0000 O   0  0  0  0  0  0  0  0  0  0  0  0
    7.8301   -4.1160    0.0000 O   0  0  0  0  0  0  0  0  0  0  0  0
    3.8660    1.7500    0.0000 O   0  0  0  0  0  0  0  0  0  0  0  0
    6.4641   -1.7500    0.0000 O   0  0  0  0  0  0  0  0  0  0  0  0
    3.0000    3.2500    0.0000 C   0  0  3  0  0  0  0  0  0  0  0  0
    7.3301   -3.2500    0.0000 C   0  0  3  0  0  0  0  0  0  0  0  0
    2.5000    4.1160    0.0000 C   0  0  0  0  0  0  0  0  0  0  0  0
    8.3301   -3.2500    0.0000 C   0  0  0  0  0  0  0  0  0  0  0  0
    3.8660    2.7500    0.0000 C   0  0  0  0  0  0  0  0  0  0  0  0
    6.4641   -2.7500    0.0000 C   0  0  0  0  0  0  0  0  0  0  0  0
    4.7320    0.2500    0.0000 C   0  0  0  0  0  0  0  0  0  0  0  0
    5.5981   -0.2500    0.0000 C   0  0  0  0  0  0  0  0  0  0  0  0
    4.7320    1.2500    0.0000 C   0  0  0  0  0  0  0  0  0  0  0  0
    5.5981   -1.2500    0.0000 C   0  0  0  0  0  0  0  0  0  0  0  0
    2.8395    2.6511    0.0000 H   0  0  0  0  0  0  0  0  0  0  0  0
    6.8917   -3.6884    0.0000 H   0  0  0  0  0  0  0  0  0  0  0  0
    2.9750    4.5146    0.0000 H   0  0  0  0  0  0  0  0  0  0  0  0
    2.0250    4.5146    0.0000 H   0  0  0  0  0  0  0  0  0  0  0  0
    8.9127   -3.4620    0.0000 H   0  0  0  0  0  0  0  0  0  0  0  0
    8.4378   -2.6394    0.0000 H   0  0  0  0  0  0  0  0  0  0  0  0
    4.4766    2.6423    0.0000 H   0  0  0  0  0  0  0  0  0  0  0  0
    4.0781    3.3326    0.0000 H   0  0  0  0  0  0  0  0  0  0  0  0
    5.8535   -2.6423    0.0000 H   0  0  0  0  0  0  0  0  0  0  0  0
    6.2520   -3.3326    0.0000 H   0  0  0  0  0  0  0  0  0  0  0  0
    4.1215    0.3577    0.0000 H   0  0  0  0  0  0  0  0  0  0  0  0
    4.5200   -0.3326    0.0000 H   0  0  0  0  0  0  0  0  0  0  0  0
    6.2087   -0.3577    0.0000 H   0  0  0  0  0  0  0  0  0  0  0  0
    5.8101    0.3326    0.0000 H   0  0  0  0  0  0  0  0  0  0  0  0
    5.3426    1.1423    0.0000 H   0  0  0  0  0  0  0  0  0  0  0  0
    4.9441    1.8326    0.0000 H   0  0  0  0  0  0  0  0  0  0  0  0
    4.9875   -1.1423    0.0000 H   0  0  0  0  0  0  0  0  0  0  0  0
    5.3860   -1.8326    0.0000 H   0  0  0  0  0  0  0  0  0  0  0  0
  1  5  1  0  0  0  0
  1  7  1  0  0  0  0
  2  6  1  0  0  0  0
  2  8  1  0  0  0  0
  3  9  1  0  0  0  0
  3 13  1  0  0  0  0
  4 10  1  0  0  0  0
  4 14  1  0  0  0  0
  5  7  1  0  0  0  0
  5  9  1  0  0  0  0
  5 15  1  0  0  0  0
  6  8  1  0  0  0  0
  6 10  1  0  0  0  0
  6 16  1  0  0  0  0
  7 17  1  0  0  0  0
  7 18  1  0  0  0  0
  8 19  1  0  0  0  0
  8 20  1  0  0  0  0
  9 21  1  0  0  0  0
  9 22  1  0  0  0  0
 10 23  1  0  0  0  0
 10 24  1  0  0  0  0
 11 12  1  0  0  0  0
 11 13  1  0  0  0  0
 11 25  1  0  0  0  0
 11 26  1  0  0  0  0
 12 14  1  0  0  0  0
 12 27  1  0  0  0  0
 12 28  1  0  0  0  0
 13 29  1  0  0  0  0
 13 30  1  0  0  0  0
 14 31  1  0  0  0  0
 14 32  1  0  0  0  0
M  END
> <PUBCHEM_COMPOUND_CID>
17046

> <PUBCHEM_COMPOUND_CANONICALIZED>
1

> <PUBCHEM_CACTVS_COMPLEXITY>
144

> <PUBCHEM_CACTVS_HBOND_ACCEPTOR>
4

> <PUBCHEM_CACTVS_HBOND_DONOR>
0

> <PUBCHEM_CACTVS_ROTATABLE_BOND>
9

> <PUBCHEM_CACTVS_SUBSKEYS>
AAADceBwOAAAAAAAAAAAAAAAEiQAAAAAAAAAAAAAAAAAAAAAAAAAGgAAAAAACBSggAIAAAAABAAAAAAAAAAAAAAAAAAAAAAAAAABAAAAAAACAAAFAAACAABAAAAAAAAAAAAAAAAAAAAAAAAAAAAAAAAAAA==

> <PUBCHEM_IUPAC_OPENEYE_NAME>
2-[4-(oxiran-2-ylmethoxy)butoxymethyl]oxirane

> <PUBCHEM_IUPAC_CAS_NAME>
2-[4-(2-oxiranylmethoxy)butoxymethyl]oxirane

> <PUBCHEM_IUPAC_NAME_MARKUP>
2-[4-(oxiran-2-ylmethoxy)butoxymethyl]oxirane

> <PUBCHEM_IUPAC_NAME>
2-[4-(oxiran-2-ylmethoxy)butoxymethyl]oxirane

> <PUBCHEM_IUPAC_SYSTEMATIC_NAME>
2-[4-(oxiran-2-ylmethoxy)butoxymethyl]oxirane

> <PUBCHEM_IUPAC_TRADITIONAL_NAME>
2-(4-glycidoxybutoxymethyl)oxirane

> <PUBCHEM_IUPAC_INCHI>
InChI=1S/C10H18O4/c1(3-11-5-9-7-13-9)2-4-12-6-10-8-14-10/h9-10H,1-8H2

> <PUBCHEM_IUPAC_INCHIKEY>
SHKUUQIDMUMQQK-UHFFFAOYSA-N

> <PUBCHEM_XLOGP3_AA>
0

> <PUBCHEM_EXACT_MASS>
202.12050905

> <PUBCHEM_MOLECULAR_FORMULA>
C10H18O4

> <PUBCHEM_MOLECULAR_WEIGHT>
202.25

> <PUBCHEM_SMILES>
C1C(O1)COCCCCOCC2CO2

> <PUBCHEM_OPENEYE_CAN_SMILES>
C1C(O1)COCCCCOCC2CO2

> <PUBCHEM_OPENEYE_ISO_SMILES>
C1C(O1)COCCCCOCC2CO2

> <PUBCHEM_CACTVS_TPSA>
43.5

> <PUBCHEM_MONOISOTOPIC_WEIGHT>
202.12050905

> <PUBCHEM_TOTAL_CHARGE>
0

> <PUBCHEM_HEAVY_ATOM_COUNT>
14

> <PUBCHEM_ATOM_DEF_STEREO_COUNT>
0

> <PUBCHEM_ATOM_UDEF_STEREO_COUNT>
2

> <PUBCHEM_BOND_DEF_STEREO_COUNT>
0

> <PUBCHEM_BOND_UDEF_STEREO_COUNT>
0

> <PUBCHEM_ISOTOPIC_ATOM_COUNT>
0

> <PUBCHEM_COMPONENT_COUNT>
1

> <PUBCHEM_CACTVS_TAUTO_COUNT>
-1

> <PUBCHEM_COORDINATE_TYPE>
1
5
255

> <PUBCHEM_BONDANNOTATIONS>
5  9  3
6  10  3

$$$$
