171040307
  -OEChem-04042505312D

 62 56  0     0  0  0  0  0  0999 V2000
    9.1360    2.9189    0.0000 Cl  0  0  0  0  0  0  0  0  0  0  0  0
    9.1360    6.6510    0.0000 Cl  0  0  0  0  0  0  0  0  0  0  0  0
   10.8681    2.9189    0.0000 Na  0  3  0  0  0  0  0  0  0  0  0  0
   10.8681    6.6510    0.0000 Na  0  3  0  0  0  0  0  0  0  0  0  0
    2.2690    0.3100    0.0000 O   0  0  0  0  0  0  0  0  0  0  0  0
    5.7331    3.3100    0.0000 O   0  0  0  0  0  0  0  0  0  0  0  0
    0.5369    3.3100    0.0000 O   0  0  0  0  0  0  0  0  0  0  0  0
    5.7331    9.0950    0.0000 O   0  0  0  0  0  0  0  0  0  0  0  0
    0.5369    9.0950    0.0000 O   0  0  0  0  0  0  0  0  0  0  0  0
    2.2690    6.0950    0.0000 O   0  0  0  0  0  0  0  0  0  0  0  0
   10.0021    3.4189    0.0000 O   0  5  0  0  0  0  0  0  0  0  0  0
   10.0021    7.1510    0.0000 O   0  5  0  0  0  0  0  0  0  0  0  0
    8.2700    2.4189    0.0000 O   0  0  0  0  0  0  0  0  0  0  0  0
    8.6360    3.7850    0.0000 O   0  0  0  0  0  0  0  0  0  0  0  0
    9.6360    2.0529    0.0000 O   0  0  0  0  0  0  0  0  0  0  0  0
    8.2700    6.1510    0.0000 O   0  0  0  0  0  0  0  0  0  0  0  0
    8.6360    7.5170    0.0000 O   0  0  0  0  0  0  0  0  0  0  0  0
    9.6360    5.7850    0.0000 O   0  0  0  0  0  0  0  0  0  0  0  0
    3.1350    2.8100    0.0000 N   0  0  0  0  0  0  0  0  0  0  0  0
    3.1350    8.5950    0.0000 N   0  0  0  0  0  0  0  0  0  0  0  0
    3.1350    1.8100    0.0000 C   0  0  0  0  0  0  0  0  0  0  0  0
    4.0010    3.3100    0.0000 C   0  0  0  0  0  0  0  0  0  0  0  0
    2.2690    3.3100    0.0000 C   0  0  0  0  0  0  0  0  0  0  0  0
    4.0010    9.0950    0.0000 C   0  0  0  0  0  0  0  0  0  0  0  0
    2.2690    9.0950    0.0000 C   0  0  0  0  0  0  0  0  0  0  0  0
    3.1350    7.5950    0.0000 C   0  0  0  0  0  0  0  0  0  0  0  0
    2.2690    1.3100    0.0000 C   0  0  0  0  0  0  0  0  0  0  0  0
    4.8671    2.8100    0.0000 C   0  0  0  0  0  0  0  0  0  0  0  0
    1.4030    2.8100    0.0000 C   0  0  0  0  0  0  0  0  0  0  0  0
    4.8671    8.5950    0.0000 C   0  0  0  0  0  0  0  0  0  0  0  0
    1.4030    8.5950    0.0000 C   0  0  0  0  0  0  0  0  0  0  0  0
    2.2690    7.0950    0.0000 C   0  0  0  0  0  0  0  0  0  0  0  0
    3.3471    1.2274    0.0000 H   0  0  0  0  0  0  0  0  0  0  0  0
    3.7456    1.9177    0.0000 H   0  0  0  0  0  0  0  0  0  0  0  0
    4.3996    3.7850    0.0000 H   0  0  0  0  0  0  0  0  0  0  0  0
    3.6025    3.7850    0.0000 H   0  0  0  0  0  0  0  0  0  0  0  0
    2.6675    3.7850    0.0000 H   0  0  0  0  0  0  0  0  0  0  0  0
    1.8705    3.7850    0.0000 H   0  0  0  0  0  0  0  0  0  0  0  0
    4.3996    9.5699    0.0000 H   0  0  0  0  0  0  0  0  0  0  0  0
    3.6025    9.5699    0.0000 H   0  0  0  0  0  0  0  0  0  0  0  0
    2.6675    9.5699    0.0000 H   0  0  0  0  0  0  0  0  0  0  0  0
    1.8705    9.5699    0.0000 H   0  0  0  0  0  0  0  0  0  0  0  0
    3.3471    7.0123    0.0000 H   0  0  0  0  0  0  0  0  0  0  0  0
    3.7456    7.7026    0.0000 H   0  0  0  0  0  0  0  0  0  0  0  0
    2.0569    1.8926    0.0000 H   0  0  0  0  0  0  0  0  0  0  0  0
    1.6584    1.2023    0.0000 H   0  0  0  0  0  0  0  0  0  0  0  0
    4.4685    2.3350    0.0000 H   0  0  0  0  0  0  0  0  0  0  0  0
    5.2656    2.3350    0.0000 H   0  0  0  0  0  0  0  0  0  0  0  0
    1.0044    2.3350    0.0000 H   0  0  0  0  0  0  0  0  0  0  0  0
    1.8015    2.3350    0.0000 H   0  0  0  0  0  0  0  0  0  0  0  0
    4.4685    8.1200    0.0000 H   0  0  0  0  0  0  0  0  0  0  0  0
    5.2656    8.1200    0.0000 H   0  0  0  0  0  0  0  0  0  0  0  0
    1.0044    8.1200    0.0000 H   0  0  0  0  0  0  0  0  0  0  0  0
    1.8015    8.1200    0.0000 H   0  0  0  0  0  0  0  0  0  0  0  0
    2.0569    7.6776    0.0000 H   0  0  0  0  0  0  0  0  0  0  0  0
    1.6584    6.9873    0.0000 H   0  0  0  0  0  0  0  0  0  0  0  0
    1.7320    0.0000    0.0000 H   0  0  0  0  0  0  0  0  0  0  0  0
    6.2700    3.0000    0.0000 H   0  0  0  0  0  0  0  0  0  0  0  0
    0.0000    3.0000    0.0000 H   0  0  0  0  0  0  0  0  0  0  0  0
    6.2700    8.7850    0.0000 H   0  0  0  0  0  0  0  0  0  0  0  0
    0.0000    8.7850    0.0000 H   0  0  0  0  0  0  0  0  0  0  0  0
    1.7320    5.7850    0.0000 H   0  0  0  0  0  0  0  0  0  0  0  0
  1 11  1  0  0  0  0
  1 13  2  0  0  0  0
  1 14  2  0  0  0  0
  1 15  2  0  0  0  0
  2 12  1  0  0  0  0
  2 16  2  0  0  0  0
  2 17  2  0  0  0  0
  2 18  2  0  0  0  0
  5 27  1  0  0  0  0
  5 57  1  0  0  0  0
  6 28  1  0  0  0  0
  6 58  1  0  0  0  0
  7 29  1  0  0  0  0
  7 59  1  0  0  0  0
  8 30  1  0  0  0  0
  8 60  1  0  0  0  0
  9 31  1  0  0  0  0
  9 61  1  0  0  0  0
 10 32  1  0  0  0  0
 10 62  1  0  0  0  0
 19 21  1  0  0  0  0
 19 22  1  0  0  0  0
 19 23  1  0  0  0  0
 20 24  1  0  0  0  0
 20 25  1  0  0  0  0
 20 26  1  0  0  0  0
 21 27  1  0  0  0  0
 21 33  1  0  0  0  0
 21 34  1  0  0  0  0
 22 28  1  0  0  0  0
 22 35  1  0  0  0  0
 22 36  1  0  0  0  0
 23 29  1  0  0  0  0
 23 37  1  0  0  0  0
 23 38  1  0  0  0  0
 24 30  1  0  0  0  0
 24 39  1  0  0  0  0
 24 40  1  0  0  0  0
 25 31  1  0  0  0  0
 25 41  1  0  0  0  0
 25 42  1  0  0  0  0
 26 32  1  0  0  0  0
 26 43  1  0  0  0  0
 26 44  1  0  0  0  0
 27 45  1  0  0  0  0
 27 46  1  0  0  0  0
 28 47  1  0  0  0  0
 28 48  1  0  0  0  0
 29 49  1  0  0  0  0
 29 50  1  0  0  0  0
 30 51  1  0  0  0  0
 30 52  1  0  0  0  0
 31 53  1  0  0  0  0
 31 54  1  0  0  0  0
 32 55  1  0  0  0  0
 32 56  1  0  0  0  0
M  CHG  4   3   1   4   1  11  -1  12  -1
M  END
> <PUBCHEM_COMPOUND_CID>
171040307

> <PUBCHEM_COMPOUND_CANONICALIZED>
1

> <PUBCHEM_CACTVS_COMPLEXITY>
152

> <PUBCHEM_CACTVS_HBOND_ACCEPTOR>
16

> <PUBCHEM_CACTVS_HBOND_DONOR>
6

> <PUBCHEM_CACTVS_ROTATABLE_BOND>
12

> <PUBCHEM_CACTVS_SUBSKEYS>
AAADceBzPDAGAAAAAAAAAAAAAAAAAAAAAAAAAAAAAAAAAAAAAAAAHgAACAAAAADhgAYAAAMAAgAAAAAAAAAAAAAAAAAAAAAIAAACEAAAAAAAAAAAAACQAAAAAAAAAAAAAAAAAAAAAAAAAAAAAAAAAAAAAA==

> <PUBCHEM_IUPAC_OPENEYE_NAME>
disodium;2-[bis(2-hydroxyethyl)amino]ethanol;diperchlorate

> <PUBCHEM_IUPAC_CAS_NAME>
disodium;2-[bis(2-hydroxyethyl)amino]ethanol;diperchlorate

> <PUBCHEM_IUPAC_NAME_MARKUP>
disodium;2-[bis(2-hydroxyethyl)amino]ethanol;diperchlorate

> <PUBCHEM_IUPAC_NAME>
disodium;2-[bis(2-hydroxyethyl)amino]ethanol;diperchlorate

> <PUBCHEM_IUPAC_SYSTEMATIC_NAME>
disodium;2-[bis(2-hydroxyethyl)amino]ethanol;diperchlorate

> <PUBCHEM_IUPAC_TRADITIONAL_NAME>
disodium;2-[bis(2-hydroxyethyl)amino]ethanol;diperchlorate

> <PUBCHEM_IUPAC_INCHI>
InChI=1S/2C6H15NO3.2ClHO4.2Na/c2*8-4-1-7(2-5-9)3-6-10;2*2-1(3,4)5;;/h2*8-10H,1-6H2;2*(H,2,3,4,5);;/q;;;;2*+1/p-2

> <PUBCHEM_IUPAC_INCHIKEY>
MXXHYLUAUDPQFR-UHFFFAOYSA-L

> <PUBCHEM_EXACT_MASS>
542.0869476

> <PUBCHEM_MOLECULAR_FORMULA>
C12H30Cl2N2Na2O14

> <PUBCHEM_MOLECULAR_WEIGHT>
543.3

> <PUBCHEM_SMILES>
C(CO)N(CCO)CCO.C(CO)N(CCO)CCO.[O-]Cl(=O)(=O)=O.[O-]Cl(=O)(=O)=O.[Na+].[Na+]

> <PUBCHEM_OPENEYE_CAN_SMILES>
C(CO)N(CCO)CCO.C(CO)N(CCO)CCO.[O-]Cl(=O)(=O)=O.[O-]Cl(=O)(=O)=O.[Na+].[Na+]

> <PUBCHEM_OPENEYE_ISO_SMILES>
C(CO)N(CCO)CCO.C(CO)N(CCO)CCO.[O-]Cl(=O)(=O)=O.[O-]Cl(=O)(=O)=O.[Na+].[Na+]

> <PUBCHEM_CACTVS_TPSA>
276

> <PUBCHEM_MONOISOTOPIC_WEIGHT>
542.0869476

> <PUBCHEM_TOTAL_CHARGE>
0

> <PUBCHEM_HEAVY_ATOM_COUNT>
32

> <PUBCHEM_ATOM_DEF_STEREO_COUNT>
0

> <PUBCHEM_ATOM_UDEF_STEREO_COUNT>
0

> <PUBCHEM_BOND_DEF_STEREO_COUNT>
0

> <PUBCHEM_BOND_UDEF_STEREO_COUNT>
0

> <PUBCHEM_ISOTOPIC_ATOM_COUNT>
0

> <PUBCHEM_COMPONENT_COUNT>
6

> <PUBCHEM_CACTVS_TAUTO_COUNT>
-1

> <PUBCHEM_COORDINATE_TYPE>
1
5
255

$$$$
