17113
  -OEChem-04042505422D

 28 30  0     0  0  0  0  0  0999 V2000
    6.2619   -1.4636    0.0000 O   0  0  0  0  0  0  0  0  0  0  0  0
    5.2619    0.2685    0.0000 N   0  0  0  0  0  0  0  0  0  0  0  0
    4.6783    1.0732    0.0000 N   0  0  0  0  0  0  0  0  0  0  0  0
    4.6783   -0.5363    0.0000 N   0  0  0  0  0  0  0  0  0  0  0  0
    6.2619    0.2685    0.0000 C   0  0  0  0  0  0  0  0  0  0  0  0
    3.7320    0.7685    0.0000 C   0  0  0  0  0  0  0  0  0  0  0  0
    3.7320   -0.2315    0.0000 C   0  0  0  0  0  0  0  0  0  0  0  0
    6.7619    1.1345    0.0000 C   0  0  0  0  0  0  0  0  0  0  0  0
    7.7619    1.1345    0.0000 C   0  0  0  0  0  0  0  0  0  0  0  0
    6.7619   -0.5976    0.0000 C   0  0  0  0  0  0  0  0  0  0  0  0
    8.2619    0.2685    0.0000 C   0  0  0  0  0  0  0  0  0  0  0  0
    7.7619   -0.5976    0.0000 C   0  0  0  0  0  0  0  0  0  0  0  0
    2.8660    1.2685    0.0000 C   0  0  0  0  0  0  0  0  0  0  0  0
    2.8660   -0.7315    0.0000 C   0  0  0  0  0  0  0  0  0  0  0  0
    8.2619    2.0005    0.0000 C   0  0  0  0  0  0  0  0  0  0  0  0
    2.0000    0.7685    0.0000 C   0  0  0  0  0  0  0  0  0  0  0  0
    2.0000   -0.2315    0.0000 C   0  0  0  0  0  0  0  0  0  0  0  0
    6.4519    1.6714    0.0000 H   0  0  0  0  0  0  0  0  0  0  0  0
    8.8819    0.2685    0.0000 H   0  0  0  0  0  0  0  0  0  0  0  0
    8.0719   -1.1345    0.0000 H   0  0  0  0  0  0  0  0  0  0  0  0
    2.8660    1.8885    0.0000 H   0  0  0  0  0  0  0  0  0  0  0  0
    2.8660   -1.3515    0.0000 H   0  0  0  0  0  0  0  0  0  0  0  0
    8.7988    1.6905    0.0000 H   0  0  0  0  0  0  0  0  0  0  0  0
    8.5719    2.5375    0.0000 H   0  0  0  0  0  0  0  0  0  0  0  0
    7.7249    2.3105    0.0000 H   0  0  0  0  0  0  0  0  0  0  0  0
    1.4631    1.0785    0.0000 H   0  0  0  0  0  0  0  0  0  0  0  0
    1.4631   -0.5415    0.0000 H   0  0  0  0  0  0  0  0  0  0  0  0
    6.5719   -2.0005    0.0000 H   0  0  0  0  0  0  0  0  0  0  0  0
  1 10  1  0  0  0  0
  1 28  1  0  0  0  0
  2  3  1  0  0  0  0
  2  4  1  0  0  0  0
  2  5  1  0  0  0  0
  3  6  2  0  0  0  0
  4  7  2  0  0  0  0
  5  8  1  0  0  0  0
  5 10  2  0  0  0  0
  6  7  1  0  0  0  0
  6 13  1  0  0  0  0
  7 14  1  0  0  0  0
  8  9  2  0  0  0  0
  8 18  1  0  0  0  0
  9 11  1  0  0  0  0
  9 15  1  0  0  0  0
 10 12  1  0  0  0  0
 11 12  2  0  0  0  0
 11 19  1  0  0  0  0
 12 20  1  0  0  0  0
 13 16  2  0  0  0  0
 13 21  1  0  0  0  0
 14 17  2  0  0  0  0
 14 22  1  0  0  0  0
 15 23  1  0  0  0  0
 15 24  1  0  0  0  0
 15 25  1  0  0  0  0
 16 17  1  0  0  0  0
 16 26  1  0  0  0  0
 17 27  1  0  0  0  0
M  END
> <PUBCHEM_COMPOUND_CID>
17113

> <PUBCHEM_COMPOUND_CANONICALIZED>
1

> <PUBCHEM_CACTVS_COMPLEXITY>
259

> <PUBCHEM_CACTVS_HBOND_ACCEPTOR>
3

> <PUBCHEM_CACTVS_HBOND_DONOR>
1

> <PUBCHEM_CACTVS_ROTATABLE_BOND>
1

> <PUBCHEM_CACTVS_SUBSKEYS>
AAADccBzIAAAAAAAAAAAAAAAAAAAAWAAAAAwYAAAAAAAAFgB9AAAHgAICAAADAyBngAyxrAAAgCiAyRiQACSBAQgMgAYmCA3fJgKZqKSkZOAcABkyBEI2AeQwAAOIAAAQAAAECBAAACAAAAgQAAAAAAAAA==

> <PUBCHEM_IUPAC_OPENEYE_NAME>
2-(benzotriazol-2-yl)-4-methyl-phenol

> <PUBCHEM_IUPAC_CAS_NAME>
2-(2-benzotriazolyl)-4-methylphenol

> <PUBCHEM_IUPAC_NAME_MARKUP>
2-(benzotriazol-2-yl)-4-methylphenol

> <PUBCHEM_IUPAC_NAME>
2-(benzotriazol-2-yl)-4-methylphenol

> <PUBCHEM_IUPAC_SYSTEMATIC_NAME>
2-(benzotriazol-2-yl)-4-methyl-phenol

> <PUBCHEM_IUPAC_TRADITIONAL_NAME>
2-(benzotriazol-2-yl)-4-methyl-phenol

> <PUBCHEM_IUPAC_INCHI>
InChI=1S/C13H11N3O/c1-9-6-7-13(17)12(8-9)16-14-10-4-2-3-5-11(10)15-16/h2-8,17H,1H3

> <PUBCHEM_IUPAC_INCHIKEY>
MCPKSFINULVDNX-UHFFFAOYSA-N

> <PUBCHEM_XLOGP3>
4.3

> <PUBCHEM_EXACT_MASS>
225.090211983

> <PUBCHEM_MOLECULAR_FORMULA>
C13H11N3O

> <PUBCHEM_MOLECULAR_WEIGHT>
225.25

> <PUBCHEM_SMILES>
CC1=CC(=C(C=C1)O)N2N=C3C=CC=CC3=N2

> <PUBCHEM_OPENEYE_CAN_SMILES>
CC1=CC(=C(C=C1)O)N2N=C3C=CC=CC3=N2

> <PUBCHEM_OPENEYE_ISO_SMILES>
CC1=CC(=C(C=C1)O)N2N=C3C=CC=CC3=N2

> <PUBCHEM_CACTVS_TPSA>
50.9

> <PUBCHEM_MONOISOTOPIC_WEIGHT>
225.090211983

> <PUBCHEM_TOTAL_CHARGE>
0

> <PUBCHEM_HEAVY_ATOM_COUNT>
17

> <PUBCHEM_ATOM_DEF_STEREO_COUNT>
0

> <PUBCHEM_ATOM_UDEF_STEREO_COUNT>
0

> <PUBCHEM_BOND_DEF_STEREO_COUNT>
0

> <PUBCHEM_BOND_UDEF_STEREO_COUNT>
0

> <PUBCHEM_ISOTOPIC_ATOM_COUNT>
0

> <PUBCHEM_COMPONENT_COUNT>
1

> <PUBCHEM_CACTVS_TAUTO_COUNT>
-1

> <PUBCHEM_COORDINATE_TYPE>
1
5
255

> <PUBCHEM_BONDANNOTATIONS>
10  12  8
11  12  8
13  16  8
14  17  8
16  17  8
2  3  8
2  4  8
3  6  8
4  7  8
5  10  8
5  8  8
6  13  8
6  7  8
7  14  8
8  9  8
9  11  8

$$$$
