171850
  -OEChem-04042505592D

134133  0     0  0  0  0  0  0999 V2000
   11.5263    0.4330    0.0000 Sn  0  0  0  0  0  0  0  0  0  0  0  0
   12.3923    0.9330    0.0000 S   0  0  0  0  0  0  0  0  0  0  0  0
   10.6603   -0.0670    0.0000 S   0  0  0  0  0  0  0  0  0  0  0  0
   11.0263    1.2990    0.0000 S   0  0  0  0  0  0  0  0  0  0  0  0
   14.9904    0.4330    0.0000 O   0  0  0  0  0  0  0  0  0  0  0  0
    8.0622    0.4330    0.0000 O   0  0  0  0  0  0  0  0  0  0  0  0
   11.5263    3.8971    0.0000 O   0  0  0  0  0  0  0  0  0  0  0  0
   14.1244    1.9330    0.0000 O   0  0  0  0  0  0  0  0  0  0  0  0
    8.9282   -1.0670    0.0000 O   0  0  0  0  0  0  0  0  0  0  0  0
   10.0263    3.0311    0.0000 O   0  0  0  0  0  0  0  0  0  0  0  0
   11.5263   -3.0311    0.0000 C   0  0  0  0  0  0  0  0  0  0  0  0
   12.0263   -3.8971    0.0000 C   0  0  0  0  0  0  0  0  0  0  0  0
   12.0263   -2.1651    0.0000 C   0  0  0  0  0  0  0  0  0  0  0  0
   11.5263   -4.7631    0.0000 C   0  0  0  0  0  0  0  0  0  0  0  0
   11.5263   -1.2990    0.0000 C   0  0  0  0  0  0  0  0  0  0  0  0
   12.0263   -5.6292    0.0000 C   0  0  0  0  0  0  0  0  0  0  0  0
   12.0263   -0.4330    0.0000 C   0  0  0  0  0  0  0  0  0  0  0  0
   11.5263   -6.4952    0.0000 C   0  0  0  0  0  0  0  0  0  0  0  0
   12.0263   -7.3612    0.0000 C   0  0  0  0  0  0  0  0  0  0  0  0
   11.5263   -8.2272    0.0000 C   0  0  0  0  0  0  0  0  0  0  0  0
   12.0263   -9.0933    0.0000 C   0  0  0  0  0  0  0  0  0  0  0  0
   19.3205    0.9330    0.0000 C   0  0  0  0  0  0  0  0  0  0  0  0
    3.7320   -0.0670    0.0000 C   0  0  0  0  0  0  0  0  0  0  0  0
   11.0263    8.2272    0.0000 C   0  0  0  0  0  0  0  0  0  0  0  0
   18.4545    0.4330    0.0000 C   0  0  0  0  0  0  0  0  0  0  0  0
    4.5981    0.4330    0.0000 C   0  0  0  0  0  0  0  0  0  0  0  0
   11.5263    7.3612    0.0000 C   0  0  0  0  0  0  0  0  0  0  0  0
   20.1865    0.4330    0.0000 C   0  0  0  0  0  0  0  0  0  0  0  0
    2.8660    0.4330    0.0000 C   0  0  0  0  0  0  0  0  0  0  0  0
   11.5263    9.0933    0.0000 C   0  0  0  0  0  0  0  0  0  0  0  0
   17.5885    0.9330    0.0000 C   0  0  0  0  0  0  0  0  0  0  0  0
    5.4641   -0.0670    0.0000 C   0  0  0  0  0  0  0  0  0  0  0  0
   11.0263    6.4952    0.0000 C   0  0  0  0  0  0  0  0  0  0  0  0
   16.7224    0.4330    0.0000 C   0  0  0  0  0  0  0  0  0  0  0  0
    6.3301    0.4330    0.0000 C   0  0  0  0  0  0  0  0  0  0  0  0
   11.5263    5.6292    0.0000 C   0  0  0  0  0  0  0  0  0  0  0  0
   13.2583    0.4330    0.0000 C   0  0  0  0  0  0  0  0  0  0  0  0
    9.7942    0.4330    0.0000 C   0  0  0  0  0  0  0  0  0  0  0  0
   11.5263    2.1651    0.0000 C   0  0  0  0  0  0  0  0  0  0  0  0
   11.5263   -9.9593    0.0000 C   0  0  0  0  0  0  0  0  0  0  0  0
   21.0526    0.9330    0.0000 C   0  0  0  0  0  0  0  0  0  0  0  0
   20.1865   -0.5670    0.0000 C   0  0  0  0  0  0  0  0  0  0  0  0
    2.0000   -0.0670    0.0000 C   0  0  0  0  0  0  0  0  0  0  0  0
    2.8660    1.4330    0.0000 C   0  0  0  0  0  0  0  0  0  0  0  0
   11.0263    9.9593    0.0000 C   0  0  0  0  0  0  0  0  0  0  0  0
   12.5263    9.0933    0.0000 C   0  0  0  0  0  0  0  0  0  0  0  0
   15.8564    0.9330    0.0000 C   0  0  0  0  0  0  0  0  0  0  0  0
    7.1962   -0.0670    0.0000 C   0  0  0  0  0  0  0  0  0  0  0  0
   11.0263    4.7631    0.0000 C   0  0  0  0  0  0  0  0  0  0  0  0
   14.1244    0.9330    0.0000 C   0  0  0  0  0  0  0  0  0  0  0  0
    8.9282   -0.0670    0.0000 C   0  0  0  0  0  0  0  0  0  0  0  0
   11.0263    3.0311    0.0000 C   0  0  0  0  0  0  0  0  0  0  0  0
   11.0513   -2.6326    0.0000 H   0  0  0  0  0  0  0  0  0  0  0  0
   11.0513   -3.4296    0.0000 H   0  0  0  0  0  0  0  0  0  0  0  0
   12.5012   -4.2956    0.0000 H   0  0  0  0  0  0  0  0  0  0  0  0
   12.5012   -3.4986    0.0000 H   0  0  0  0  0  0  0  0  0  0  0  0
   12.5012   -2.5636    0.0000 H   0  0  0  0  0  0  0  0  0  0  0  0
   12.5012   -1.7665    0.0000 H   0  0  0  0  0  0  0  0  0  0  0  0
   11.0513   -4.3646    0.0000 H   0  0  0  0  0  0  0  0  0  0  0  0
   11.0513   -5.1617    0.0000 H   0  0  0  0  0  0  0  0  0  0  0  0
   11.0513   -0.9005    0.0000 H   0  0  0  0  0  0  0  0  0  0  0  0
   11.0513   -1.6976    0.0000 H   0  0  0  0  0  0  0  0  0  0  0  0
   12.5012   -6.0277    0.0000 H   0  0  0  0  0  0  0  0  0  0  0  0
   12.5012   -5.2306    0.0000 H   0  0  0  0  0  0  0  0  0  0  0  0
   12.5012   -0.8315    0.0000 H   0  0  0  0  0  0  0  0  0  0  0  0
   12.5012   -0.0345    0.0000 H   0  0  0  0  0  0  0  0  0  0  0  0
   11.0513   -6.0967    0.0000 H   0  0  0  0  0  0  0  0  0  0  0  0
   11.0513   -6.8937    0.0000 H   0  0  0  0  0  0  0  0  0  0  0  0
   12.5012   -7.7597    0.0000 H   0  0  0  0  0  0  0  0  0  0  0  0
   12.5012   -6.9627    0.0000 H   0  0  0  0  0  0  0  0  0  0  0  0
   11.0513   -7.8287    0.0000 H   0  0  0  0  0  0  0  0  0  0  0  0
   11.0513   -8.6258    0.0000 H   0  0  0  0  0  0  0  0  0  0  0  0
   12.5012   -9.4918    0.0000 H   0  0  0  0  0  0  0  0  0  0  0  0
   12.5012   -8.6947    0.0000 H   0  0  0  0  0  0  0  0  0  0  0  0
   19.7190    1.4080    0.0000 H   0  0  0  0  0  0  0  0  0  0  0  0
   18.9220    1.4080    0.0000 H   0  0  0  0  0  0  0  0  0  0  0  0
    3.3335   -0.5419    0.0000 H   0  0  0  0  0  0  0  0  0  0  0  0
    4.1306   -0.5419    0.0000 H   0  0  0  0  0  0  0  0  0  0  0  0
   10.5513    8.6258    0.0000 H   0  0  0  0  0  0  0  0  0  0  0  0
   10.5513    7.8287    0.0000 H   0  0  0  0  0  0  0  0  0  0  0  0
   18.0560   -0.0419    0.0000 H   0  0  0  0  0  0  0  0  0  0  0  0
   18.8530   -0.0419    0.0000 H   0  0  0  0  0  0  0  0  0  0  0  0
    4.9966    0.9080    0.0000 H   0  0  0  0  0  0  0  0  0  0  0  0
    4.1996    0.9080    0.0000 H   0  0  0  0  0  0  0  0  0  0  0  0
   12.0012    6.9627    0.0000 H   0  0  0  0  0  0  0  0  0  0  0  0
   12.0012    7.7597    0.0000 H   0  0  0  0  0  0  0  0  0  0  0  0
   19.6496    0.1230    0.0000 H   0  0  0  0  0  0  0  0  0  0  0  0
    2.8660   -0.1870    0.0000 H   0  0  0  0  0  0  0  0  0  0  0  0
   11.8363    8.5563    0.0000 H   0  0  0  0  0  0  0  0  0  0  0  0
   17.9870    1.4080    0.0000 H   0  0  0  0  0  0  0  0  0  0  0  0
   17.1899    1.4080    0.0000 H   0  0  0  0  0  0  0  0  0  0  0  0
    5.0656   -0.5419    0.0000 H   0  0  0  0  0  0  0  0  0  0  0  0
    5.8626   -0.5419    0.0000 H   0  0  0  0  0  0  0  0  0  0  0  0
   10.5513    6.8937    0.0000 H   0  0  0  0  0  0  0  0  0  0  0  0
   10.5513    6.0967    0.0000 H   0  0  0  0  0  0  0  0  0  0  0  0
   16.3239   -0.0419    0.0000 H   0  0  0  0  0  0  0  0  0  0  0  0
   17.1210   -0.0419    0.0000 H   0  0  0  0  0  0  0  0  0  0  0  0
    6.7287    0.9080    0.0000 H   0  0  0  0  0  0  0  0  0  0  0  0
    5.9316    0.9080    0.0000 H   0  0  0  0  0  0  0  0  0  0  0  0
   12.0012    5.2306    0.0000 H   0  0  0  0  0  0  0  0  0  0  0  0
   12.0012    6.0277    0.0000 H   0  0  0  0  0  0  0  0  0  0  0  0
   12.8598   -0.0419    0.0000 H   0  0  0  0  0  0  0  0  0  0  0  0
   13.6569   -0.0419    0.0000 H   0  0  0  0  0  0  0  0  0  0  0  0
   10.1928    0.9080    0.0000 H   0  0  0  0  0  0  0  0  0  0  0  0
    9.3957    0.9080    0.0000 H   0  0  0  0  0  0  0  0  0  0  0  0
   12.0012    1.7665    0.0000 H   0  0  0  0  0  0  0  0  0  0  0  0
   12.0012    2.5636    0.0000 H   0  0  0  0  0  0  0  0  0  0  0  0
   10.9893   -9.6493    0.0000 H   0  0  0  0  0  0  0  0  0  0  0  0
   11.2163  -10.4962    0.0000 H   0  0  0  0  0  0  0  0  0  0  0  0
   12.0632  -10.2693    0.0000 H   0  0  0  0  0  0  0  0  0  0  0  0
   21.3626    0.3961    0.0000 H   0  0  0  0  0  0  0  0  0  0  0  0
   21.5895    1.2430    0.0000 H   0  0  0  0  0  0  0  0  0  0  0  0
   20.7426    1.4700    0.0000 H   0  0  0  0  0  0  0  0  0  0  0  0
   19.5665   -0.5670    0.0000 H   0  0  0  0  0  0  0  0  0  0  0  0
   20.1865   -1.1870    0.0000 H   0  0  0  0  0  0  0  0  0  0  0  0
   20.8065   -0.5670    0.0000 H   0  0  0  0  0  0  0  0  0  0  0  0
    1.6900    0.4699    0.0000 H   0  0  0  0  0  0  0  0  0  0  0  0
    1.4631   -0.3770    0.0000 H   0  0  0  0  0  0  0  0  0  0  0  0
    2.3100   -0.6039    0.0000 H   0  0  0  0  0  0  0  0  0  0  0  0
    3.4860    1.4330    0.0000 H   0  0  0  0  0  0  0  0  0  0  0  0
    2.8660    2.0530    0.0000 H   0  0  0  0  0  0  0  0  0  0  0  0
    2.2460    1.4330    0.0000 H   0  0  0  0  0  0  0  0  0  0  0  0
   11.5632   10.2693    0.0000 H   0  0  0  0  0  0  0  0  0  0  0  0
   10.7163   10.4962    0.0000 H   0  0  0  0  0  0  0  0  0  0  0  0
   10.4893    9.6493    0.0000 H   0  0  0  0  0  0  0  0  0  0  0  0
   12.5263    8.4733    0.0000 H   0  0  0  0  0  0  0  0  0  0  0  0
   13.1463    9.0933    0.0000 H   0  0  0  0  0  0  0  0  0  0  0  0
   12.5263    9.7133    0.0000 H   0  0  0  0  0  0  0  0  0  0  0  0
   16.2549    1.4080    0.0000 H   0  0  0  0  0  0  0  0  0  0  0  0
   15.4579    1.4080    0.0000 H   0  0  0  0  0  0  0  0  0  0  0  0
    6.7976   -0.5419    0.0000 H   0  0  0  0  0  0  0  0  0  0  0  0
    7.5947   -0.5419    0.0000 H   0  0  0  0  0  0  0  0  0  0  0  0
   10.5513    5.1617    0.0000 H   0  0  0  0  0  0  0  0  0  0  0  0
   10.5513    4.3646    0.0000 H   0  0  0  0  0  0  0  0  0  0  0  0
  1  2  1  0  0  0  0
  1  3  1  0  0  0  0
  1  4  1  0  0  0  0
  1 17  1  0  0  0  0
  2 37  1  0  0  0  0
  3 38  1  0  0  0  0
  4 39  1  0  0  0  0
  5 47  1  0  0  0  0
  5 50  1  0  0  0  0
  6 48  1  0  0  0  0
  6 51  1  0  0  0  0
  7 49  1  0  0  0  0
  7 52  1  0  0  0  0
  8 50  2  0  0  0  0
  9 51  2  0  0  0  0
 10 52  2  0  0  0  0
 11 12  1  0  0  0  0
 11 13  1  0  0  0  0
 11 53  1  0  0  0  0
 11 54  1  0  0  0  0
 12 14  1  0  0  0  0
 12 55  1  0  0  0  0
 12 56  1  0  0  0  0
 13 15  1  0  0  0  0
 13 57  1  0  0  0  0
 13 58  1  0  0  0  0
 14 16  1  0  0  0  0
 14 59  1  0  0  0  0
 14 60  1  0  0  0  0
 15 17  1  0  0  0  0
 15 61  1  0  0  0  0
 15 62  1  0  0  0  0
 16 18  1  0  0  0  0
 16 63  1  0  0  0  0
 16 64  1  0  0  0  0
 17 65  1  0  0  0  0
 17 66  1  0  0  0  0
 18 19  1  0  0  0  0
 18 67  1  0  0  0  0
 18 68  1  0  0  0  0
 19 20  1  0  0  0  0
 19 69  1  0  0  0  0
 19 70  1  0  0  0  0
 20 21  1  0  0  0  0
 20 71  1  0  0  0  0
 20 72  1  0  0  0  0
 21 40  1  0  0  0  0
 21 73  1  0  0  0  0
 21 74  1  0  0  0  0
 22 25  1  0  0  0  0
 22 28  1  0  0  0  0
 22 75  1  0  0  0  0
 22 76  1  0  0  0  0
 23 26  1  0  0  0  0
 23 29  1  0  0  0  0
 23 77  1  0  0  0  0
 23 78  1  0  0  0  0
 24 27  1  0  0  0  0
 24 30  1  0  0  0  0
 24 79  1  0  0  0  0
 24 80  1  0  0  0  0
 25 31  1  0  0  0  0
 25 81  1  0  0  0  0
 25 82  1  0  0  0  0
 26 32  1  0  0  0  0
 26 83  1  0  0  0  0
 26 84  1  0  0  0  0
 27 33  1  0  0  0  0
 27 85  1  0  0  0  0
 27 86  1  0  0  0  0
 28 41  1  0  0  0  0
 28 42  1  0  0  0  0
 28 87  1  0  0  0  0
 29 43  1  0  0  0  0
 29 44  1  0  0  0  0
 29 88  1  0  0  0  0
 30 45  1  0  0  0  0
 30 46  1  0  0  0  0
 30 89  1  0  0  0  0
 31 34  1  0  0  0  0
 31 90  1  0  0  0  0
 31 91  1  0  0  0  0
 32 35  1  0  0  0  0
 32 92  1  0  0  0  0
 32 93  1  0  0  0  0
 33 36  1  0  0  0  0
 33 94  1  0  0  0  0
 33 95  1  0  0  0  0
 34 47  1  0  0  0  0
 34 96  1  0  0  0  0
 34 97  1  0  0  0  0
 35 48  1  0  0  0  0
 35 98  1  0  0  0  0
 35 99  1  0  0  0  0
 36 49  1  0  0  0  0
 36100  1  0  0  0  0
 36101  1  0  0  0  0
 37 50  1  0  0  0  0
 37102  1  0  0  0  0
 37103  1  0  0  0  0
 38 51  1  0  0  0  0
 38104  1  0  0  0  0
 38105  1  0  0  0  0
 39 52  1  0  0  0  0
 39106  1  0  0  0  0
 39107  1  0  0  0  0
 40108  1  0  0  0  0
 40109  1  0  0  0  0
 40110  1  0  0  0  0
 41111  1  0  0  0  0
 41112  1  0  0  0  0
 41113  1  0  0  0  0
 42114  1  0  0  0  0
 42115  1  0  0  0  0
 42116  1  0  0  0  0
 43117  1  0  0  0  0
 43118  1  0  0  0  0
 43119  1  0  0  0  0
 44120  1  0  0  0  0
 44121  1  0  0  0  0
 44122  1  0  0  0  0
 45123  1  0  0  0  0
 45124  1  0  0  0  0
 45125  1  0  0  0  0
 46126  1  0  0  0  0
 46127  1  0  0  0  0
 46128  1  0  0  0  0
 47129  1  0  0  0  0
 47130  1  0  0  0  0
 48131  1  0  0  0  0
 48132  1  0  0  0  0
 49133  1  0  0  0  0
 49134  1  0  0  0  0
M  END
> <PUBCHEM_COMPOUND_CID>
171850

> <PUBCHEM_COMPOUND_CANONICALIZED>
1

> <PUBCHEM_CACTVS_COMPLEXITY>
769

> <PUBCHEM_CACTVS_HBOND_ACCEPTOR>
9

> <PUBCHEM_CACTVS_HBOND_DONOR>
0

> <PUBCHEM_CACTVS_ROTATABLE_BOND>
41

> <PUBCHEM_CACTVS_SUBSKEYS>
AAADcfB8OABgAAAAAACAAAAAAAAAAAAAAAAAAAAAAAAAAAAAAAAAGgQAAAAADQCkwAKCCAAABAAIAACQCAAAAAAAAAAAAAAAAAAAAAIAAAACAAAEAAAAAAGAwOAMAAAAAAAAAAAAAAAAAAAAAAAAAAAAAA==

> <PUBCHEM_IUPAC_OPENEYE_NAME>
6-methylheptyl 2-[dodecyl-bis[[2-(6-methylheptoxy)-2-oxo-ethyl]sulfanyl]stannyl]sulfanylacetate

> <PUBCHEM_IUPAC_CAS_NAME>
2-[[dodecyl-bis[[2-(6-methylheptoxy)-2-oxoethyl]thio]stannyl]thio]acetic acid 6-methylheptyl ester

> <PUBCHEM_IUPAC_NAME_MARKUP>
6-methylheptyl 2-[dodecyl-bis[[2-(6-methylheptoxy)-2-oxoethyl]sulfanyl]stannyl]sulfanylacetate

> <PUBCHEM_IUPAC_NAME>
6-methylheptyl 2-[dodecyl-bis[[2-(6-methylheptoxy)-2-oxoethyl]sulfanyl]stannyl]sulfanylacetate

> <PUBCHEM_IUPAC_SYSTEMATIC_NAME>
6-methylheptyl 2-[dodecyl-bis[[2-(6-methylheptoxy)-2-oxidanylidene-ethyl]sulfanyl]stannyl]sulfanylethanoate

> <PUBCHEM_IUPAC_TRADITIONAL_NAME>
2-[[bis[[2-keto-2-(6-methylheptoxy)ethyl]thio]-lauryl-stannyl]thio]acetic acid 6-methylheptyl ester

> <PUBCHEM_IUPAC_INCHI>
InChI=1S/C12H25.3C10H20O2S.Sn/c1-3-5-7-9-11-12-10-8-6-4-2;3*1-9(2)6-4-3-5-7-12-10(11)8-13;/h1,3-12H2,2H3;3*9,13H,3-8H2,1-2H3;/q;;;;+3/p-3

> <PUBCHEM_IUPAC_INCHIKEY>
BRTAUCXEBFNCRH-UHFFFAOYSA-K

> <PUBCHEM_EXACT_MASS>
898.429556

> <PUBCHEM_MOLECULAR_FORMULA>
C42H82O6S3Sn

> <PUBCHEM_MOLECULAR_WEIGHT>
898.0

> <PUBCHEM_SMILES>
CCCCCCCCCCCC[Sn](SCC(=O)OCCCCCC(C)C)(SCC(=O)OCCCCCC(C)C)SCC(=O)OCCCCCC(C)C

> <PUBCHEM_OPENEYE_CAN_SMILES>
CCCCCCCCCCCC[Sn](SCC(=O)OCCCCCC(C)C)(SCC(=O)OCCCCCC(C)C)SCC(=O)OCCCCCC(C)C

> <PUBCHEM_OPENEYE_ISO_SMILES>
CCCCCCCCCCCC[Sn](SCC(=O)OCCCCCC(C)C)(SCC(=O)OCCCCCC(C)C)SCC(=O)OCCCCCC(C)C

> <PUBCHEM_CACTVS_TPSA>
155

> <PUBCHEM_MONOISOTOPIC_WEIGHT>
898.429556

> <PUBCHEM_TOTAL_CHARGE>
0

> <PUBCHEM_HEAVY_ATOM_COUNT>
52

> <PUBCHEM_ATOM_DEF_STEREO_COUNT>
0

> <PUBCHEM_ATOM_UDEF_STEREO_COUNT>
0

> <PUBCHEM_BOND_DEF_STEREO_COUNT>
0

> <PUBCHEM_BOND_UDEF_STEREO_COUNT>
0

> <PUBCHEM_ISOTOPIC_ATOM_COUNT>
0

> <PUBCHEM_COMPONENT_COUNT>
1

> <PUBCHEM_CACTVS_TAUTO_COUNT>
-1

> <PUBCHEM_COORDINATE_TYPE>
1
5
255

$$$$
