174215
  -OEChem-04042505352D

235243  0     0  0  0  0  0  0999 V2000
    6.6121   -2.3025    0.0000 P   0  0  0  0  0  0  0  0  0  0  0  0
   10.7759    2.3518    0.0000 P   0  0  0  0  0  0  0  0  0  0  0  0
   12.5953   -1.8541    0.0000 P   0  0  0  0  0  0  0  0  0  0  0  0
    7.2356   -3.0843    0.0000 O   0  0  0  0  0  0  0  0  0  0  0  0
    5.6121   -2.3025    0.0000 O   0  0  0  0  0  0  0  0  0  0  0  0
   11.2759    3.2178    0.0000 O   0  0  0  0  0  0  0  0  0  0  0  0
    9.7871    2.2028    0.0000 O   0  0  0  0  0  0  0  0  0  0  0  0
   13.0953   -2.7202    0.0000 O   0  0  0  0  0  0  0  0  0  0  0  0
   12.9606   -0.9233    0.0000 O   0  0  0  0  0  0  0  0  0  0  0  0
    7.0460   -1.4015    0.0000 O   0  0  0  0  0  0  0  0  0  0  0  0
   11.3392    1.5256    0.0000 O   0  0  0  0  0  0  0  0  0  0  0  0
   11.5981   -1.9289    0.0000 O   0  0  0  0  0  0  0  0  0  0  0  0
    9.4742   -0.3511    0.0000 N   0  0  0  0  0  0  0  0  0  0  0  0
    8.7785   -4.1884    0.0000 C   0  0  0  0  0  0  0  0  0  0  0  0
    3.7868   -1.7846    0.0000 C   0  0  0  0  0  0  0  0  0  0  0  0
   12.6371    4.5395    0.0000 C   0  0  0  0  0  0  0  0  0  0  0  0
    8.0594    1.4186    0.0000 C   0  0  0  0  0  0  0  0  0  0  0  0
   13.5594   -4.5598    0.0000 C   0  0  0  0  0  0  0  0  0  0  0  0
   13.1453    0.9650    0.0000 C   0  0  0  0  0  0  0  0  0  0  0  0
    7.8826   -4.6327    0.0000 C   0  0  0  0  0  0  0  0  0  0  0  0
    3.9981   -2.7620    0.0000 C   0  0  0  0  0  0  0  0  0  0  0  0
   11.6850    4.8453    0.0000 C   0  0  0  0  0  0  0  0  0  0  0  0
    8.1226    2.4166    0.0000 C   0  0  0  0  0  0  0  0  0  0  0  0
   14.3002   -3.8882    0.0000 C   0  0  0  0  0  0  0  0  0  0  0  0
   13.9780    0.4113    0.0000 C   0  0  0  0  0  0  0  0  0  0  0  0
    6.7957   -7.1208    0.0000 C   0  0  0  0  0  0  0  0  0  0  0  0
    2.7304   -5.1631    0.0000 C   0  0  0  0  0  0  0  0  0  0  0  0
   10.2394    7.1437    0.0000 C   0  0  0  0  0  0  0  0  0  0  0  0
    6.5113    4.6019    0.0000 C   0  0  0  0  0  0  0  0  0  0  0  0
   17.0134   -3.7854    0.0000 C   0  0  0  0  0  0  0  0  0  0  0  0
   16.6763    0.7141    0.0000 C   0  0  0  0  0  0  0  0  0  0  0  0
    6.1121   -4.4932    0.0000 C   0  0  0  0  0  0  0  0  0  0  0  0
    5.2111   -4.0593    0.0000 C   0  0  0  0  0  0  0  0  0  0  0  0
    9.9550    4.4434    0.0000 C   0  0  0  0  0  0  0  0  0  0  0  0
    9.1287    3.8801    0.0000 C   0  0  0  0  0  0  0  0  0  0  0  0
   14.8172   -2.1890    0.0000 C   0  0  0  0  0  0  0  0  0  0  0  0
   14.7424   -1.1918    0.0000 C   0  0  0  0  0  0  0  0  0  0  0  0
    6.8743   -6.1239    0.0000 C   0  0  0  0  0  0  0  0  0  0  0  0
    3.4608   -4.4801    0.0000 C   0  0  0  0  0  0  0  0  0  0  0  0
   10.4656    6.1696    0.0000 C   0  0  0  0  0  0  0  0  0  0  0  0
    7.3353    4.0354    0.0000 C   0  0  0  0  0  0  0  0  0  0  0  0
   16.0567   -3.4944    0.0000 C   0  0  0  0  0  0  0  0  0  0  0  0
   15.7736    0.2837    0.0000 C   0  0  0  0  0  0  0  0  0  0  0  0
    7.0130   -4.0593    0.0000 C   0  0  0  0  0  0  0  0  0  0  0  0
    4.9886   -3.0843    0.0000 C   0  0  0  0  0  0  0  0  0  0  0  0
   10.9106    4.1487    0.0000 C   0  0  0  0  0  0  0  0  0  0  0  0
    9.0540    2.8829    0.0000 C   0  0  0  0  0  0  0  0  0  0  0  0
   14.0841   -2.8692    0.0000 C   0  0  0  0  0  0  0  0  0  0  0  0
   13.9162   -0.6285    0.0000 C   0  0  0  0  0  0  0  0  0  0  0  0
    7.8128   -5.6720    0.0000 C   0  0  0  0  0  0  0  0  0  0  0  0
    3.2291   -3.4646    0.0000 C   0  0  0  0  0  0  0  0  0  0  0  0
   11.4610    5.8626    0.0000 C   0  0  0  0  0  0  0  0  0  0  0  0
    7.2575    2.9967    0.0000 C   0  0  0  0  0  0  0  0  0  0  0  0
   15.2932   -4.2028    0.0000 C   0  0  0  0  0  0  0  0  0  0  0  0
   14.9130    0.8705    0.0000 C   0  0  0  0  0  0  0  0  0  0  0  0
    6.0182   -5.5306    0.0000 C   0  0  0  0  0  0  0  0  0  0  0  0
    4.4585   -4.7794    0.0000 C   0  0  0  0  0  0  0  0  0  0  0  0
    9.7076    5.4553    0.0000 C   0  0  0  0  0  0  0  0  0  0  0  0
    8.2772    4.4801    0.0000 C   0  0  0  0  0  0  0  0  0  0  0  0
   15.8171   -2.4807    0.0000 C   0  0  0  0  0  0  0  0  0  0  0  0
   15.6878   -0.7544    0.0000 C   0  0  0  0  0  0  0  0  0  0  0  0
    9.6744   -3.7442    0.0000 C   0  0  0  0  0  0  0  0  0  0  0  0
    9.2228   -5.0843    0.0000 C   0  0  0  0  0  0  0  0  0  0  0  0
    8.3342   -3.2925    0.0000 C   0  0  0  0  0  0  0  0  0  0  0  0
    3.5756   -0.8071    0.0000 C   0  0  0  0  0  0  0  0  0  0  0  0
    2.8094   -1.9958    0.0000 C   0  0  0  0  0  0  0  0  0  0  0  0
    4.7643   -1.5733    0.0000 C   0  0  0  0  0  0  0  0  0  0  0  0
   13.5892    4.2338    0.0000 C   0  0  0  0  0  0  0  0  0  0  0  0
   12.9428    5.4916    0.0000 C   0  0  0  0  0  0  0  0  0  0  0  0
   12.3313    3.5874    0.0000 C   0  0  0  0  0  0  0  0  0  0  0  0
    7.0614    1.4818    0.0000 C   0  0  0  0  0  0  0  0  0  0  0  0
    7.9962    0.4206    0.0000 C   0  0  0  0  0  0  0  0  0  0  0  0
    9.0574    1.3554    0.0000 C   0  0  0  0  0  0  0  0  0  0  0  0
   12.8185   -5.2315    0.0000 C   0  0  0  0  0  0  0  0  0  0  0  0
   14.2310   -5.3007    0.0000 C   0  0  0  0  0  0  0  0  0  0  0  0
   12.8877   -3.8190    0.0000 C   0  0  0  0  0  0  0  0  0  0  0  0
   13.6990    1.7977    0.0000 C   0  0  0  0  0  0  0  0  0  0  0  0
   12.3126    1.5188    0.0000 C   0  0  0  0  0  0  0  0  0  0  0  0
   12.5916    0.1323    0.0000 C   0  0  0  0  0  0  0  0  0  0  0  0
    6.7172   -8.1177    0.0000 C   0  0  0  0  0  0  0  0  0  0  0  0
    7.7926   -7.1994    0.0000 C   0  0  0  0  0  0  0  0  0  0  0  0
    5.7988   -7.0423    0.0000 C   0  0  0  0  0  0  0  0  0  0  0  0
    2.0000   -5.8461    0.0000 C   0  0  0  0  0  0  0  0  0  0  0  0
    2.0474   -4.4327    0.0000 C   0  0  0  0  0  0  0  0  0  0  0  0
    3.4134   -5.8935    0.0000 C   0  0  0  0  0  0  0  0  0  0  0  0
   10.0131    8.1177    0.0000 C   0  0  0  0  0  0  0  0  0  0  0  0
   11.2134    7.3700    0.0000 C   0  0  0  0  0  0  0  0  0  0  0  0
    9.2653    6.9174    0.0000 C   0  0  0  0  0  0  0  0  0  0  0  0
    5.6872    5.1684    0.0000 C   0  0  0  0  0  0  0  0  0  0  0  0
    5.9448    3.7778    0.0000 C   0  0  0  0  0  0  0  0  0  0  0  0
    7.0778    5.4260    0.0000 C   0  0  0  0  0  0  0  0  0  0  0  0
   17.9701   -4.0765    0.0000 C   0  0  0  0  0  0  0  0  0  0  0  0
   16.7224   -4.7421    0.0000 C   0  0  0  0  0  0  0  0  0  0  0  0
   17.3045   -2.8287    0.0000 C   0  0  0  0  0  0  0  0  0  0  0  0
   17.5789    1.1445    0.0000 C   0  0  0  0  0  0  0  0  0  0  0  0
   16.2458    1.6167    0.0000 C   0  0  0  0  0  0  0  0  0  0  0  0
   17.1067   -0.1885    0.0000 C   0  0  0  0  0  0  0  0  0  0  0  0
    8.4770   -0.4258    0.0000 C   0  0  0  0  0  0  0  0  0  0  0  0
    9.9081    0.5499    0.0000 C   0  0  0  0  0  0  0  0  0  0  0  0
   10.0376   -1.1773    0.0000 C   0  0  0  0  0  0  0  0  0  0  0  0
    8.0432   -1.3268    0.0000 C   0  0  0  0  0  0  0  0  0  0  0  0
   10.9053    0.6246    0.0000 C   0  0  0  0  0  0  0  0  0  0  0  0
   11.0348   -1.1026    0.0000 C   0  0  0  0  0  0  0  0  0  0  0  0
    8.3264   -6.0193    0.0000 H   0  0  0  0  0  0  0  0  0  0  0  0
    2.6373   -3.2796    0.0000 H   0  0  0  0  0  0  0  0  0  0  0  0
   11.9171    6.2825    0.0000 H   0  0  0  0  0  0  0  0  0  0  0  0
    6.6999    2.7255    0.0000 H   0  0  0  0  0  0  0  0  0  0  0  0
   15.4288   -4.8078    0.0000 H   0  0  0  0  0  0  0  0  0  0  0  0
   14.9569    1.4889    0.0000 H   0  0  0  0  0  0  0  0  0  0  0  0
    5.4565   -5.7931    0.0000 H   0  0  0  0  0  0  0  0  0  0  0  0
    4.6035   -5.3823    0.0000 H   0  0  0  0  0  0  0  0  0  0  0  0
    9.1130    5.6312    0.0000 H   0  0  0  0  0  0  0  0  0  0  0  0
    8.3307    5.0978    0.0000 H   0  0  0  0  0  0  0  0  0  0  0  0
   16.2667   -2.0537    0.0000 H   0  0  0  0  0  0  0  0  0  0  0  0
   16.1960   -1.1096    0.0000 H   0  0  0  0  0  0  0  0  0  0  0  0
    9.9498   -4.2996    0.0000 H   0  0  0  0  0  0  0  0  0  0  0  0
   10.2298   -3.4687    0.0000 H   0  0  0  0  0  0  0  0  0  0  0  0
    9.3989   -3.1887    0.0000 H   0  0  0  0  0  0  0  0  0  0  0  0
    8.6673   -5.3598    0.0000 H   0  0  0  0  0  0  0  0  0  0  0  0
    9.4982   -5.6398    0.0000 H   0  0  0  0  0  0  0  0  0  0  0  0
    9.7782   -4.8089    0.0000 H   0  0  0  0  0  0  0  0  0  0  0  0
    8.8897   -3.0171    0.0000 H   0  0  0  0  0  0  0  0  0  0  0  0
    8.0588   -2.7371    0.0000 H   0  0  0  0  0  0  0  0  0  0  0  0
    7.7788   -3.5680    0.0000 H   0  0  0  0  0  0  0  0  0  0  0  0
    4.1816   -0.6762    0.0000 H   0  0  0  0  0  0  0  0  0  0  0  0
    3.4446   -0.2011    0.0000 H   0  0  0  0  0  0  0  0  0  0  0  0
    2.9696   -0.9381    0.0000 H   0  0  0  0  0  0  0  0  0  0  0  0
    2.6784   -1.3898    0.0000 H   0  0  0  0  0  0  0  0  0  0  0  0
    2.2034   -2.1268    0.0000 H   0  0  0  0  0  0  0  0  0  0  0  0
    2.9404   -2.6018    0.0000 H   0  0  0  0  0  0  0  0  0  0  0  0
    4.8952   -2.1794    0.0000 H   0  0  0  0  0  0  0  0  0  0  0  0
    5.3703   -1.4424    0.0000 H   0  0  0  0  0  0  0  0  0  0  0  0
    4.6333   -0.9673    0.0000 H   0  0  0  0  0  0  0  0  0  0  0  0
   13.3996    3.6435    0.0000 H   0  0  0  0  0  0  0  0  0  0  0  0
   14.1795    4.0442    0.0000 H   0  0  0  0  0  0  0  0  0  0  0  0
   13.7787    4.8241    0.0000 H   0  0  0  0  0  0  0  0  0  0  0  0
   13.5331    5.3021    0.0000 H   0  0  0  0  0  0  0  0  0  0  0  0
   13.1324    6.0820    0.0000 H   0  0  0  0  0  0  0  0  0  0  0  0
   12.3525    5.6812    0.0000 H   0  0  0  0  0  0  0  0  0  0  0  0
   11.7410    3.7770    0.0000 H   0  0  0  0  0  0  0  0  0  0  0  0
   12.1417    2.9971    0.0000 H   0  0  0  0  0  0  0  0  0  0  0  0
   12.9216    3.3979    0.0000 H   0  0  0  0  0  0  0  0  0  0  0  0
    7.1006    2.1005    0.0000 H   0  0  0  0  0  0  0  0  0  0  0  0
    6.4427    1.5209    0.0000 H   0  0  0  0  0  0  0  0  0  0  0  0
    7.0222    0.8630    0.0000 H   0  0  0  0  0  0  0  0  0  0  0  0
    7.3775    0.4597    0.0000 H   0  0  0  0  0  0  0  0  0  0  0  0
    7.9570   -0.1982    0.0000 H   0  0  0  0  0  0  0  0  0  0  0  0
    8.6150    0.3814    0.0000 H   0  0  0  0  0  0  0  0  0  0  0  0
    9.0182    0.7366    0.0000 H   0  0  0  0  0  0  0  0  0  0  0  0
    9.6762    1.3162    0.0000 H   0  0  0  0  0  0  0  0  0  0  0  0
    9.0966    1.9741    0.0000 H   0  0  0  0  0  0  0  0  0  0  0  0
   12.4021   -4.7721    0.0000 H   0  0  0  0  0  0  0  0  0  0  0  0
   12.3591   -5.6479    0.0000 H   0  0  0  0  0  0  0  0  0  0  0  0
   13.2349   -5.6908    0.0000 H   0  0  0  0  0  0  0  0  0  0  0  0
   13.7717   -5.7171    0.0000 H   0  0  0  0  0  0  0  0  0  0  0  0
   14.6474   -5.7600    0.0000 H   0  0  0  0  0  0  0  0  0  0  0  0
   14.6903   -4.8843    0.0000 H   0  0  0  0  0  0  0  0  0  0  0  0
   13.3470   -3.4025    0.0000 H   0  0  0  0  0  0  0  0  0  0  0  0
   12.4713   -3.3596    0.0000 H   0  0  0  0  0  0  0  0  0  0  0  0
   12.4284   -4.2354    0.0000 H   0  0  0  0  0  0  0  0  0  0  0  0
   14.2153    1.4544    0.0000 H   0  0  0  0  0  0  0  0  0  0  0  0
   14.0424    2.3140    0.0000 H   0  0  0  0  0  0  0  0  0  0  0  0
   13.1828    2.1410    0.0000 H   0  0  0  0  0  0  0  0  0  0  0  0
   12.6559    2.0350    0.0000 H   0  0  0  0  0  0  0  0  0  0  0  0
   11.7964    1.8621    0.0000 H   0  0  0  0  0  0  0  0  0  0  0  0
   11.9693    1.0025    0.0000 H   0  0  0  0  0  0  0  0  0  0  0  0
   12.0753    0.4756    0.0000 H   0  0  0  0  0  0  0  0  0  0  0  0
   12.2483   -0.3839    0.0000 H   0  0  0  0  0  0  0  0  0  0  0  0
   13.1079   -0.2110    0.0000 H   0  0  0  0  0  0  0  0  0  0  0  0
    6.0991   -8.0690    0.0000 H   0  0  0  0  0  0  0  0  0  0  0  0
    6.6684   -8.7358    0.0000 H   0  0  0  0  0  0  0  0  0  0  0  0
    7.3352   -8.1665    0.0000 H   0  0  0  0  0  0  0  0  0  0  0  0
    7.7439   -7.8175    0.0000 H   0  0  0  0  0  0  0  0  0  0  0  0
    8.4107   -7.2481    0.0000 H   0  0  0  0  0  0  0  0  0  0  0  0
    7.8414   -6.5813    0.0000 H   0  0  0  0  0  0  0  0  0  0  0  0
    5.8475   -6.4242    0.0000 H   0  0  0  0  0  0  0  0  0  0  0  0
    5.1807   -6.9936    0.0000 H   0  0  0  0  0  0  0  0  0  0  0  0
    5.7501   -7.6604    0.0000 H   0  0  0  0  0  0  0  0  0  0  0  0
    1.5765   -5.3932    0.0000 H   0  0  0  0  0  0  0  0  0  0  0  0
    1.5471   -6.2695    0.0000 H   0  0  0  0  0  0  0  0  0  0  0  0
    2.4235   -6.2989    0.0000 H   0  0  0  0  0  0  0  0  0  0  0  0
    2.5003   -4.0092    0.0000 H   0  0  0  0  0  0  0  0  0  0  0  0
    1.6240   -3.9798    0.0000 H   0  0  0  0  0  0  0  0  0  0  0  0
    1.5946   -4.8561    0.0000 H   0  0  0  0  0  0  0  0  0  0  0  0
    2.9606   -6.3170    0.0000 H   0  0  0  0  0  0  0  0  0  0  0  0
    3.8369   -6.3464    0.0000 H   0  0  0  0  0  0  0  0  0  0  0  0
    3.8663   -5.4701    0.0000 H   0  0  0  0  0  0  0  0  0  0  0  0
   10.6170    8.2580    0.0000 H   0  0  0  0  0  0  0  0  0  0  0  0
    9.8728    8.7217    0.0000 H   0  0  0  0  0  0  0  0  0  0  0  0
    9.4092    7.9775    0.0000 H   0  0  0  0  0  0  0  0  0  0  0  0
   11.3537    6.7660    0.0000 H   0  0  0  0  0  0  0  0  0  0  0  0
   11.8174    7.5103    0.0000 H   0  0  0  0  0  0  0  0  0  0  0  0
   11.0731    7.9739    0.0000 H   0  0  0  0  0  0  0  0  0  0  0  0
    9.1250    7.5213    0.0000 H   0  0  0  0  0  0  0  0  0  0  0  0
    8.6614    6.7771    0.0000 H   0  0  0  0  0  0  0  0  0  0  0  0
    9.4056    6.3135    0.0000 H   0  0  0  0  0  0  0  0  0  0  0  0
    6.0384    5.6793    0.0000 H   0  0  0  0  0  0  0  0  0  0  0  0
    5.1763    5.5196    0.0000 H   0  0  0  0  0  0  0  0  0  0  0  0
    5.3360    4.6575    0.0000 H   0  0  0  0  0  0  0  0  0  0  0  0
    5.4338    4.1291    0.0000 H   0  0  0  0  0  0  0  0  0  0  0  0
    5.5935    3.2669    0.0000 H   0  0  0  0  0  0  0  0  0  0  0  0
    6.4557    3.4266    0.0000 H   0  0  0  0  0  0  0  0  0  0  0  0
    7.5887    5.0747    0.0000 H   0  0  0  0  0  0  0  0  0  0  0  0
    7.4290    5.9369    0.0000 H   0  0  0  0  0  0  0  0  0  0  0  0
    6.5668    5.7772    0.0000 H   0  0  0  0  0  0  0  0  0  0  0  0
   17.7897   -4.6697    0.0000 H   0  0  0  0  0  0  0  0  0  0  0  0
   18.5633   -4.2570    0.0000 H   0  0  0  0  0  0  0  0  0  0  0  0
   18.1506   -3.4834    0.0000 H   0  0  0  0  0  0  0  0  0  0  0  0
   16.1292   -4.5617    0.0000 H   0  0  0  0  0  0  0  0  0  0  0  0
   16.5419   -5.3353    0.0000 H   0  0  0  0  0  0  0  0  0  0  0  0
   17.3155   -4.9226    0.0000 H   0  0  0  0  0  0  0  0  0  0  0  0
   17.8977   -3.0092    0.0000 H   0  0  0  0  0  0  0  0  0  0  0  0
   17.4850   -2.2356    0.0000 H   0  0  0  0  0  0  0  0  0  0  0  0
   16.7114   -2.6483    0.0000 H   0  0  0  0  0  0  0  0  0  0  0  0
   17.8457    0.5849    0.0000 H   0  0  0  0  0  0  0  0  0  0  0  0
   18.1385    1.4114    0.0000 H   0  0  0  0  0  0  0  0  0  0  0  0
   17.3120    1.7041    0.0000 H   0  0  0  0  0  0  0  0  0  0  0  0
   16.8055    1.8836    0.0000 H   0  0  0  0  0  0  0  0  0  0  0  0
   15.9790    2.1764    0.0000 H   0  0  0  0  0  0  0  0  0  0  0  0
   15.6862    1.3499    0.0000 H   0  0  0  0  0  0  0  0  0  0  0  0
   16.5470   -0.4554    0.0000 H   0  0  0  0  0  0  0  0  0  0  0  0
   17.3735   -0.7482    0.0000 H   0  0  0  0  0  0  0  0  0  0  0  0
   17.6663    0.0783    0.0000 H   0  0  0  0  0  0  0  0  0  0  0  0
    8.5388    0.1911    0.0000 H   0  0  0  0  0  0  0  0  0  0  0  0
    7.8802   -0.2579    0.0000 H   0  0  0  0  0  0  0  0  0  0  0  0
    9.9699    1.1668    0.0000 H   0  0  0  0  0  0  0  0  0  0  0  0
    9.3113    0.7178    0.0000 H   0  0  0  0  0  0  0  0  0  0  0  0
    9.4724   -1.4324    0.0000 H   0  0  0  0  0  0  0  0  0  0  0  0
   10.1905   -1.7782    0.0000 H   0  0  0  0  0  0  0  0  0  0  0  0
    7.9814   -1.9437    0.0000 H   0  0  0  0  0  0  0  0  0  0  0  0
    8.6400   -1.4947    0.0000 H   0  0  0  0  0  0  0  0  0  0  0  0
   10.8436    0.0077    0.0000 H   0  0  0  0  0  0  0  0  0  0  0  0
   11.5022    0.4567    0.0000 H   0  0  0  0  0  0  0  0  0  0  0  0
   11.5999   -0.8476    0.0000 H   0  0  0  0  0  0  0  0  0  0  0  0
   10.8818   -0.5018    0.0000 H   0  0  0  0  0  0  0  0  0  0  0  0
  1  4  1  0  0  0  0
  1  5  1  0  0  0  0
  1 10  1  0  0  0  0
  2  6  1  0  0  0  0
  2  7  1  0  0  0  0
  2 11  1  0  0  0  0
  3  8  1  0  0  0  0
  3  9  1  0  0  0  0
  3 12  1  0  0  0  0
  4 44  1  0  0  0  0
  5 45  1  0  0  0  0
  6 46  1  0  0  0  0
  7 47  1  0  0  0  0
  8 48  1  0  0  0  0
  9 49  1  0  0  0  0
 10101  1  0  0  0  0
 11102  1  0  0  0  0
 12103  1  0  0  0  0
 13 98  1  0  0  0  0
 13 99  1  0  0  0  0
 13100  1  0  0  0  0
 14 20  1  0  0  0  0
 14 62  1  0  0  0  0
 14 63  1  0  0  0  0
 14 64  1  0  0  0  0
 15 21  1  0  0  0  0
 15 65  1  0  0  0  0
 15 66  1  0  0  0  0
 15 67  1  0  0  0  0
 16 22  1  0  0  0  0
 16 68  1  0  0  0  0
 16 69  1  0  0  0  0
 16 70  1  0  0  0  0
 17 23  1  0  0  0  0
 17 71  1  0  0  0  0
 17 72  1  0  0  0  0
 17 73  1  0  0  0  0
 18 24  1  0  0  0  0
 18 74  1  0  0  0  0
 18 75  1  0  0  0  0
 18 76  1  0  0  0  0
 19 25  1  0  0  0  0
 19 77  1  0  0  0  0
 19 78  1  0  0  0  0
 19 79  1  0  0  0  0
 20 44  1  0  0  0  0
 20 50  2  0  0  0  0
 21 45  1  0  0  0  0
 21 51  2  0  0  0  0
 22 46  1  0  0  0  0
 22 52  2  0  0  0  0
 23 47  1  0  0  0  0
 23 53  2  0  0  0  0
 24 48  1  0  0  0  0
 24 54  2  0  0  0  0
 25 49  1  0  0  0  0
 25 55  2  0  0  0  0
 26 38  1  0  0  0  0
 26 80  1  0  0  0  0
 26 81  1  0  0  0  0
 26 82  1  0  0  0  0
 27 39  1  0  0  0  0
 27 83  1  0  0  0  0
 27 84  1  0  0  0  0
 27 85  1  0  0  0  0
 28 40  1  0  0  0  0
 28 86  1  0  0  0  0
 28 87  1  0  0  0  0
 28 88  1  0  0  0  0
 29 41  1  0  0  0  0
 29 89  1  0  0  0  0
 29 90  1  0  0  0  0
 29 91  1  0  0  0  0
 30 42  1  0  0  0  0
 30 92  1  0  0  0  0
 30 93  1  0  0  0  0
 30 94  1  0  0  0  0
 31 43  1  0  0  0  0
 31 95  1  0  0  0  0
 31 96  1  0  0  0  0
 31 97  1  0  0  0  0
 32 33  1  0  0  0  0
 32 44  2  0  0  0  0
 32 56  1  0  0  0  0
 33 45  2  0  0  0  0
 33 57  1  0  0  0  0
 34 35  1  0  0  0  0
 34 46  2  0  0  0  0
 34 58  1  0  0  0  0
 35 47  2  0  0  0  0
 35 59  1  0  0  0  0
 36 37  1  0  0  0  0
 36 48  2  0  0  0  0
 36 60  1  0  0  0  0
 37 49  2  0  0  0  0
 37 61  1  0  0  0  0
 38 50  1  0  0  0  0
 38 56  2  0  0  0  0
 39 51  1  0  0  0  0
 39 57  2  0  0  0  0
 40 52  1  0  0  0  0
 40 58  2  0  0  0  0
 41 53  1  0  0  0  0
 41 59  2  0  0  0  0
 42 54  1  0  0  0  0
 42 60  2  0  0  0  0
 43 55  1  0  0  0  0
 43 61  2  0  0  0  0
 50104  1  0  0  0  0
 51105  1  0  0  0  0
 52106  1  0  0  0  0
 53107  1  0  0  0  0
 54108  1  0  0  0  0
 55109  1  0  0  0  0
 56110  1  0  0  0  0
 57111  1  0  0  0  0
 58112  1  0  0  0  0
 59113  1  0  0  0  0
 60114  1  0  0  0  0
 61115  1  0  0  0  0
 62116  1  0  0  0  0
 62117  1  0  0  0  0
 62118  1  0  0  0  0
 63119  1  0  0  0  0
 63120  1  0  0  0  0
 63121  1  0  0  0  0
 64122  1  0  0  0  0
 64123  1  0  0  0  0
 64124  1  0  0  0  0
 65125  1  0  0  0  0
 65126  1  0  0  0  0
 65127  1  0  0  0  0
 66128  1  0  0  0  0
 66129  1  0  0  0  0
 66130  1  0  0  0  0
 67131  1  0  0  0  0
 67132  1  0  0  0  0
 67133  1  0  0  0  0
 68134  1  0  0  0  0
 68135  1  0  0  0  0
 68136  1  0  0  0  0
 69137  1  0  0  0  0
 69138  1  0  0  0  0
 69139  1  0  0  0  0
 70140  1  0  0  0  0
 70141  1  0  0  0  0
 70142  1  0  0  0  0
 71143  1  0  0  0  0
 71144  1  0  0  0  0
 71145  1  0  0  0  0
 72146  1  0  0  0  0
 72147  1  0  0  0  0
 72148  1  0  0  0  0
 73149  1  0  0  0  0
 73150  1  0  0  0  0
 73151  1  0  0  0  0
 74152  1  0  0  0  0
 74153  1  0  0  0  0
 74154  1  0  0  0  0
 75155  1  0  0  0  0
 75156  1  0  0  0  0
 75157  1  0  0  0  0
 76158  1  0  0  0  0
 76159  1  0  0  0  0
 76160  1  0  0  0  0
 77161  1  0  0  0  0
 77162  1  0  0  0  0
 77163  1  0  0  0  0
 78164  1  0  0  0  0
 78165  1  0  0  0  0
 78166  1  0  0  0  0
 79167  1  0  0  0  0
 79168  1  0  0  0  0
 79169  1  0  0  0  0
 80170  1  0  0  0  0
 80171  1  0  0  0  0
 80172  1  0  0  0  0
 81173  1  0  0  0  0
 81174  1  0  0  0  0
 81175  1  0  0  0  0
 82176  1  0  0  0  0
 82177  1  0  0  0  0
 82178  1  0  0  0  0
 83179  1  0  0  0  0
 83180  1  0  0  0  0
 83181  1  0  0  0  0
 84182  1  0  0  0  0
 84183  1  0  0  0  0
 84184  1  0  0  0  0
 85185  1  0  0  0  0
 85186  1  0  0  0  0
 85187  1  0  0  0  0
 86188  1  0  0  0  0
 86189  1  0  0  0  0
 86190  1  0  0  0  0
 87191  1  0  0  0  0
 87192  1  0  0  0  0
 87193  1  0  0  0  0
 88194  1  0  0  0  0
 88195  1  0  0  0  0
 88196  1  0  0  0  0
 89197  1  0  0  0  0
 89198  1  0  0  0  0
 89199  1  0  0  0  0
 90200  1  0  0  0  0
 90201  1  0  0  0  0
 90202  1  0  0  0  0
 91203  1  0  0  0  0
 91204  1  0  0  0  0
 91205  1  0  0  0  0
 92206  1  0  0  0  0
 92207  1  0  0  0  0
 92208  1  0  0  0  0
 93209  1  0  0  0  0
 93210  1  0  0  0  0
 93211  1  0  0  0  0
 94212  1  0  0  0  0
 94213  1  0  0  0  0
 94214  1  0  0  0  0
 95215  1  0  0  0  0
 95216  1  0  0  0  0
 95217  1  0  0  0  0
 96218  1  0  0  0  0
 96219  1  0  0  0  0
 96220  1  0  0  0  0
 97221  1  0  0  0  0
 97222  1  0  0  0  0
 97223  1  0  0  0  0
 98101  1  0  0  0  0
 98224  1  0  0  0  0
 98225  1  0  0  0  0
 99102  1  0  0  0  0
 99226  1  0  0  0  0
 99227  1  0  0  0  0
100103  1  0  0  0  0
100228  1  0  0  0  0
100229  1  0  0  0  0
101230  1  0  0  0  0
101231  1  0  0  0  0
102232  1  0  0  0  0
102233  1  0  0  0  0
103234  1  0  0  0  0
103235  1  0  0  0  0
M  END
> <PUBCHEM_COMPOUND_CID>
174215

> <PUBCHEM_COMPOUND_CANONICALIZED>
1

> <PUBCHEM_CACTVS_COMPLEXITY>
2250

> <PUBCHEM_CACTVS_HBOND_ACCEPTOR>
10

> <PUBCHEM_CACTVS_HBOND_DONOR>
0

> <PUBCHEM_CACTVS_ROTATABLE_BOND>
24

> <PUBCHEM_CACTVS_SUBSKEYS>
AAADcfB+PAMAAAAAAAAAAAAAAAAAAAAAAAAwYMGDBIkAAAAB/gAAHgAAACAADgThmAYyBsMAARCIQqBSAIACAAAkIAAAiAEMCMgKJjKAFRKAMQAkwBGYiYfLyPCPoAACAAAIAABAAAQAABAAAAAAAAAAAA==

> <PUBCHEM_IUPAC_OPENEYE_NAME>
2-(2,4,8,10-tetratert-butylbenzo[d][1,3,2]benzodioxaphosphepin-6-yl)oxy-N,N-bis[2-(2,4,8,10-tetratert-butylbenzo[d][1,3,2]benzodioxaphosphepin-6-yl)oxyethyl]ethanamine

> <PUBCHEM_IUPAC_CAS_NAME>
2-[(2,4,8,10-tetratert-butyl-6-benzo[d][1,3,2]benzodioxaphosphepinyl)oxy]-N,N-bis[2-[(2,4,8,10-tetratert-butyl-6-benzo[d][1,3,2]benzodioxaphosphepinyl)oxy]ethyl]ethanamine

> <PUBCHEM_IUPAC_NAME_MARKUP>
2-(2,4,8,10-tetra<I>tert</I>-butylbenzo[d][1,3,2]benzodioxaphosphepin-6-yl)oxy-<I>N</I>,<I>N</I>-bis[2-(2,4,8,10-tetra<I>tert</I>-butylbenzo[d][1,3,2]benzodioxaphosphepin-6-yl)oxyethyl]ethanamine

> <PUBCHEM_IUPAC_NAME>
2-(2,4,8,10-tetratert-butylbenzo[d][1,3,2]benzodioxaphosphepin-6-yl)oxy-N,N-bis[2-(2,4,8,10-tetratert-butylbenzo[d][1,3,2]benzodioxaphosphepin-6-yl)oxyethyl]ethanamine

> <PUBCHEM_IUPAC_SYSTEMATIC_NAME>
2-(2,4,8,10-tetratert-butylbenzo[d][1,3,2]benzodioxaphosphepin-6-yl)oxy-N,N-bis[2-(2,4,8,10-tetratert-butylbenzo[d][1,3,2]benzodioxaphosphepin-6-yl)oxyethyl]ethanamine

> <PUBCHEM_IUPAC_TRADITIONAL_NAME>
tris[2-(2,4,8,10-tetratert-butylbenzo[d][1,3,2]benzodioxaphosphepin-6-yl)oxyethyl]amine

> <PUBCHEM_IUPAC_INCHI>
InChI=1S/C90H132NO9P3/c1-79(2,3)55-43-61-62-44-56(80(4,5)6)50-68(86(22,23)24)74(62)96-101(95-73(61)67(49-55)85(19,20)21)92-40-37-91(38-41-93-102-97-75-63(45-57(81(7,8)9)51-69(75)87(25,26)27)64-46-58(82(10,11)12)52-70(76(64)98-102)88(28,29)30)39-42-94-103-99-77-65(47-59(83(13,14)15)53-71(77)89(31,32)33)66-48-60(84(16,17)18)54-72(78(66)100-103)90(34,35)36/h43-54H,37-42H2,1-36H3

> <PUBCHEM_IUPAC_INCHIKEY>
YAGPRJYCDKGWJR-UHFFFAOYSA-N

> <PUBCHEM_XLOGP3_AA>
29.9

> <PUBCHEM_EXACT_MASS>
1463.91149578

> <PUBCHEM_MOLECULAR_FORMULA>
C90H132NO9P3

> <PUBCHEM_MOLECULAR_WEIGHT>
1464.9

> <PUBCHEM_SMILES>
CC(C)(C)C1=CC2=C(C(=C1)C(C)(C)C)OP(OC3=C2C=C(C=C3C(C)(C)C)C(C)(C)C)OCCN(CCOP4OC5=C(C=C(C=C5C(C)(C)C)C(C)(C)C)C6=C(O4)C(=CC(=C6)C(C)(C)C)C(C)(C)C)CCOP7OC8=C(C=C(C=C8C(C)(C)C)C(C)(C)C)C9=C(O7)C(=CC(=C9)C(C)(C)C)C(C)(C)C

> <PUBCHEM_OPENEYE_CAN_SMILES>
CC(C)(C)C1=CC2=C(C(=C1)C(C)(C)C)OP(OC3=C2C=C(C=C3C(C)(C)C)C(C)(C)C)OCCN(CCOP4OC5=C(C=C(C=C5C(C)(C)C)C(C)(C)C)C6=C(O4)C(=CC(=C6)C(C)(C)C)C(C)(C)C)CCOP7OC8=C(C=C(C=C8C(C)(C)C)C(C)(C)C)C9=C(O7)C(=CC(=C9)C(C)(C)C)C(C)(C)C

> <PUBCHEM_OPENEYE_ISO_SMILES>
CC(C)(C)C1=CC2=C(C(=C1)C(C)(C)C)OP(OC3=C2C=C(C=C3C(C)(C)C)C(C)(C)C)OCCN(CCOP4OC5=C(C=C(C=C5C(C)(C)C)C(C)(C)C)C6=C(O4)C(=CC(=C6)C(C)(C)C)C(C)(C)C)CCOP7OC8=C(C=C(C=C8C(C)(C)C)C(C)(C)C)C9=C(O7)C(=CC(=C9)C(C)(C)C)C(C)(C)C

> <PUBCHEM_CACTVS_TPSA>
110

> <PUBCHEM_MONOISOTOPIC_WEIGHT>
1463.91149578

> <PUBCHEM_TOTAL_CHARGE>
0

> <PUBCHEM_HEAVY_ATOM_COUNT>
103

> <PUBCHEM_ATOM_DEF_STEREO_COUNT>
0

> <PUBCHEM_ATOM_UDEF_STEREO_COUNT>
0

> <PUBCHEM_BOND_DEF_STEREO_COUNT>
0

> <PUBCHEM_BOND_UDEF_STEREO_COUNT>
0

> <PUBCHEM_ISOTOPIC_ATOM_COUNT>
0

> <PUBCHEM_COMPONENT_COUNT>
1

> <PUBCHEM_CACTVS_TAUTO_COUNT>
-1

> <PUBCHEM_COORDINATE_TYPE>
1
5
255

> <PUBCHEM_BONDANNOTATIONS>
1  4  8
1  5  8
2  6  8
2  7  8
20  44  8
20  50  8
21  45  8
21  51  8
22  46  8
22  52  8
23  47  8
23  53  8
24  48  8
24  54  8
25  49  8
25  55  8
3  8  8
3  9  8
32  33  8
32  44  8
32  56  8
33  45  8
33  57  8
34  35  8
34  46  8
34  58  8
35  47  8
35  59  8
36  37  8
36  48  8
36  60  8
37  49  8
37  61  8
38  50  8
38  56  8
39  51  8
39  57  8
4  44  8
40  52  8
40  58  8
41  53  8
41  59  8
42  54  8
42  60  8
43  55  8
43  61  8
5  45  8
6  46  8
7  47  8
8  48  8
9  49  8

$$$$
