175380
  -OEChem-04042512292D

 31 33  0     1  0  0  0  0  0999 V2000
    7.7106    0.5580    0.0000 O   0  0  0  0  0  0  0  0  0  0  0  0
    2.0000   -0.7784    0.0000 O   0  0  0  0  0  0  0  0  0  0  0  0
    7.4376   -1.1973    0.0000 O   0  0  0  0  0  0  0  0  0  0  0  0
    7.4376    2.3132    0.0000 O   0  0  0  0  0  0  0  0  0  0  0  0
    2.4612    0.9429    0.0000 O   0  0  0  0  0  0  0  0  0  0  0  0
    2.0933   -2.5580    0.0000 O   0  0  0  0  0  0  0  0  0  0  0  0
    4.4487    0.0580    0.0000 C   0  0  3  0  0  0  0  0  0  0  0  0
    6.1808    0.0580    0.0000 C   0  0  3  0  0  0  0  0  0  0  0  0
    5.3147   -0.4420    0.0000 C   0  0  0  0  0  0  0  0  0  0  0  0
    6.1808    1.0580    0.0000 C   0  0  3  0  0  0  0  0  0  0  0  0
    3.5827   -0.4420    0.0000 C   0  0  3  0  0  0  0  0  0  0  0  0
    5.3147    1.5580    0.0000 C   0  0  0  0  0  0  0  0  0  0  0  0
    4.4487    1.0580    0.0000 C   0  0  0  0  0  0  0  0  0  0  0  0
    3.4782   -1.4365    0.0000 C   0  0  0  0  0  0  0  0  0  0  0  0
    7.1270   -0.2467    0.0000 C   0  0  0  0  0  0  0  0  0  0  0  0
    7.1270    1.3627    0.0000 C   0  0  0  0  0  0  0  0  0  0  0  0
    2.6691   -0.0353    0.0000 C   0  0  0  0  0  0  0  0  0  0  0  0
    5.3147    2.5580    0.0000 C   0  0  0  0  0  0  0  0  0  0  0  0
    2.5000   -1.6444    0.0000 C   0  0  0  0  0  0  0  0  0  0  0  0
    3.9118    0.3680    0.0000 H   0  0  0  0  0  0  0  0  0  0  0  0
    6.2464   -0.5585    0.0000 H   0  0  0  0  0  0  0  0  0  0  0  0
    4.9162   -0.9170    0.0000 H   0  0  0  0  0  0  0  0  0  0  0  0
    5.7133   -0.9170    0.0000 H   0  0  0  0  0  0  0  0  0  0  0  0
    6.2464    1.6745    0.0000 H   0  0  0  0  0  0  0  0  0  0  0  0
    4.1026   -0.7797    0.0000 H   0  0  0  0  0  0  0  0  0  0  0  0
    3.9118    1.3680    0.0000 H   0  0  0  0  0  0  0  0  0  0  0  0
    3.5430   -2.0531    0.0000 H   0  0  0  0  0  0  0  0  0  0  0  0
    4.0982   -1.4365    0.0000 H   0  0  0  0  0  0  0  0  0  0  0  0
    5.9347    2.5580    0.0000 H   0  0  0  0  0  0  0  0  0  0  0  0
    5.3147    3.1780    0.0000 H   0  0  0  0  0  0  0  0  0  0  0  0
    4.6947    2.5580    0.0000 H   0  0  0  0  0  0  0  0  0  0  0  0
  1 15  1  0  0  0  0
  1 16  1  0  0  0  0
  2 17  1  0  0  0  0
  2 19  1  0  0  0  0
  3 15  2  0  0  0  0
  4 16  2  0  0  0  0
  5 17  2  0  0  0  0
  6 19  2  0  0  0  0
  7  9  1  0  0  0  0
  7 11  1  0  0  0  0
  7 13  1  0  0  0  0
  7 20  1  0  0  0  0
  8  9  1  0  0  0  0
  8 10  1  0  0  0  0
  8 15  1  0  0  0  0
  8 21  1  0  0  0  0
  9 22  1  0  0  0  0
  9 23  1  0  0  0  0
 10 12  1  0  0  0  0
 10 16  1  0  0  0  0
 10 24  1  0  0  0  0
 11 14  1  0  0  0  0
 11 17  1  0  0  0  0
 11 25  1  0  0  0  0
 12 13  2  0  0  0  0
 12 18  1  0  0  0  0
 13 26  1  0  0  0  0
 14 19  1  0  0  0  0
 14 27  1  0  0  0  0
 14 28  1  0  0  0  0
 18 29  1  0  0  0  0
 18 30  1  0  0  0  0
 18 31  1  0  0  0  0
M  END
> <PUBCHEM_COMPOUND_CID>
175380

> <PUBCHEM_COMPOUND_CANONICALIZED>
1

> <PUBCHEM_CACTVS_COMPLEXITY>
531

> <PUBCHEM_CACTVS_HBOND_ACCEPTOR>
6

> <PUBCHEM_CACTVS_HBOND_DONOR>
0

> <PUBCHEM_CACTVS_ROTATABLE_BOND>
1

> <PUBCHEM_CACTVS_SUBSKEYS>
AAADccBwOAAAAAAAAAAAAAAAAAAAASJAAAAgAAAAAAAAAEAAAAAAGgAAAAAADQCAgAACCAAABACIAiDSCAAAAAAgAAAACAEAAAgAABIAAQACAAAEwAAIAAOLyPCOgAAAAAAAAAAAAAAAAAAAAAAAAAAAAA==

> <PUBCHEM_IUPAC_OPENEYE_NAME>
5-(2,5-dioxotetrahydrofuran-3-yl)-7-methyl-3a,4,5,7a-tetrahydroisobenzofuran-1,3-dione

> <PUBCHEM_IUPAC_CAS_NAME>
5-(2,5-dioxo-3-oxolanyl)-7-methyl-3a,4,5,7a-tetrahydroisobenzofuran-1,3-dione

> <PUBCHEM_IUPAC_NAME_MARKUP>
5-(2,5-dioxooxolan-3-yl)-7-methyl-3<I>a</I>,4,5,7<I>a</I>-tetrahydro-2-benzofuran-1,3-dione

> <PUBCHEM_IUPAC_NAME>
5-(2,5-dioxooxolan-3-yl)-7-methyl-3a,4,5,7a-tetrahydro-2-benzofuran-1,3-dione

> <PUBCHEM_IUPAC_SYSTEMATIC_NAME>
5-[2,5-bis(oxidanylidene)oxolan-3-yl]-7-methyl-3a,4,5,7a-tetrahydro-2-benzofuran-1,3-dione

> <PUBCHEM_IUPAC_TRADITIONAL_NAME>
5-(2,5-diketotetrahydrofuran-3-yl)-7-methyl-3a,4,5,7a-tetrahydroisobenzofuran-1,3-quinone

> <PUBCHEM_IUPAC_INCHI>
InChI=1S/C13H12O6/c1-5-2-6(7-4-9(14)18-11(7)15)3-8-10(5)13(17)19-12(8)16/h2,6-8,10H,3-4H2,1H3

> <PUBCHEM_IUPAC_INCHIKEY>
DGQOZCNCJKEVOA-UHFFFAOYSA-N

> <PUBCHEM_XLOGP3_AA>
-0.1

> <PUBCHEM_EXACT_MASS>
264.06338810

> <PUBCHEM_MOLECULAR_FORMULA>
C13H12O6

> <PUBCHEM_MOLECULAR_WEIGHT>
264.23

> <PUBCHEM_SMILES>
CC1=CC(CC2C1C(=O)OC2=O)C3CC(=O)OC3=O

> <PUBCHEM_OPENEYE_CAN_SMILES>
CC1=CC(CC2C1C(=O)OC2=O)C3CC(=O)OC3=O

> <PUBCHEM_OPENEYE_ISO_SMILES>
CC1=CC(CC2C1C(=O)OC2=O)C3CC(=O)OC3=O

> <PUBCHEM_CACTVS_TPSA>
86.7

> <PUBCHEM_MONOISOTOPIC_WEIGHT>
264.06338810

> <PUBCHEM_TOTAL_CHARGE>
0

> <PUBCHEM_HEAVY_ATOM_COUNT>
19

> <PUBCHEM_ATOM_DEF_STEREO_COUNT>
0

> <PUBCHEM_ATOM_UDEF_STEREO_COUNT>
4

> <PUBCHEM_BOND_DEF_STEREO_COUNT>
0

> <PUBCHEM_BOND_UDEF_STEREO_COUNT>
0

> <PUBCHEM_ISOTOPIC_ATOM_COUNT>
0

> <PUBCHEM_COMPONENT_COUNT>
1

> <PUBCHEM_CACTVS_TAUTO_COUNT>
-1

> <PUBCHEM_COORDINATE_TYPE>
1
5
255

> <PUBCHEM_BONDANNOTATIONS>
10  16  3
11  14  3
7  9  3
8  9  3

$$$$
