17857
  -OEChem-04042505352D

 34 34  0     1  0  0  0  0  0999 V2000
    5.5981   -1.3915    0.0000 N   0  0  0  0  0  0  0  0  0  0  0  0
    5.3660    1.4745    0.0000 N   0  0  0  0  0  0  0  0  0  0  0  0
    3.8660    0.6085    0.0000 C   0  0  3  0  0  0  0  0  0  0  0  0
    3.0000   -0.8915    0.0000 C   0  0  0  0  0  0  0  0  0  0  0  0
    3.0000    0.1085    0.0000 C   0  0  0  0  0  0  0  0  0  0  0  0
    4.7320    0.1085    0.0000 C   0  0  0  0  0  0  0  0  0  0  0  0
    3.8660   -1.3915    0.0000 C   0  0  0  0  0  0  0  0  0  0  0  0
    4.7320   -0.8915    0.0000 C   0  0  3  0  0  0  0  0  0  0  0  0
    4.3660    1.4745    0.0000 C   0  0  0  0  0  0  0  0  0  0  0  0
    3.3660    1.4745    0.0000 C   0  0  0  0  0  0  0  0  0  0  0  0
    2.5000   -1.7575    0.0000 C   0  0  0  0  0  0  0  0  0  0  0  0
    2.0000   -0.8915    0.0000 C   0  0  0  0  0  0  0  0  0  0  0  0
    2.7880    0.6911    0.0000 H   0  0  0  0  0  0  0  0  0  0  0  0
    2.3894    0.0009    0.0000 H   0  0  0  0  0  0  0  0  0  0  0  0
    5.3426    0.0009    0.0000 H   0  0  0  0  0  0  0  0  0  0  0  0
    4.9441    0.6911    0.0000 H   0  0  0  0  0  0  0  0  0  0  0  0
    3.4675   -1.8664    0.0000 H   0  0  0  0  0  0  0  0  0  0  0  0
    4.2646   -1.8664    0.0000 H   0  0  0  0  0  0  0  0  0  0  0  0
    4.7320   -1.5115    0.0000 H   0  0  0  0  0  0  0  0  0  0  0  0
    4.4737    2.0851    0.0000 H   0  0  0  0  0  0  0  0  0  0  0  0
    3.7834    1.6866    0.0000 H   0  0  0  0  0  0  0  0  0  0  0  0
    3.9030    1.7845    0.0000 H   0  0  0  0  0  0  0  0  0  0  0  0
    3.0560    2.0115    0.0000 H   0  0  0  0  0  0  0  0  0  0  0  0
    2.8291    1.1645    0.0000 H   0  0  0  0  0  0  0  0  0  0  0  0
    1.9631   -1.4475    0.0000 H   0  0  0  0  0  0  0  0  0  0  0  0
    2.1900   -2.2944    0.0000 H   0  0  0  0  0  0  0  0  0  0  0  0
    3.0369   -2.0675    0.0000 H   0  0  0  0  0  0  0  0  0  0  0  0
    2.0000   -0.2715    0.0000 H   0  0  0  0  0  0  0  0  0  0  0  0
    1.3800   -0.8915    0.0000 H   0  0  0  0  0  0  0  0  0  0  0  0
    2.0000   -1.5115    0.0000 H   0  0  0  0  0  0  0  0  0  0  0  0
    5.5981   -2.0115    0.0000 H   0  0  0  0  0  0  0  0  0  0  0  0
    6.1350   -1.0815    0.0000 H   0  0  0  0  0  0  0  0  0  0  0  0
    5.6760    2.0115    0.0000 H   0  0  0  0  0  0  0  0  0  0  0  0
    5.6760    0.9376    0.0000 H   0  0  0  0  0  0  0  0  0  0  0  0
  1  8  1  0  0  0  0
  1 31  1  0  0  0  0
  1 32  1  0  0  0  0
  2  9  1  0  0  0  0
  2 33  1  0  0  0  0
  2 34  1  0  0  0  0
  3  5  1  0  0  0  0
  3  6  1  0  0  0  0
  3  9  1  0  0  0  0
  3 10  1  0  0  0  0
  4  5  1  0  0  0  0
  4  7  1  0  0  0  0
  4 11  1  0  0  0  0
  4 12  1  0  0  0  0
  5 13  1  0  0  0  0
  5 14  1  0  0  0  0
  6  8  1  0  0  0  0
  6 15  1  0  0  0  0
  6 16  1  0  0  0  0
  7  8  1  0  0  0  0
  7 17  1  0  0  0  0
  7 18  1  0  0  0  0
  8 19  1  0  0  0  0
  9 20  1  0  0  0  0
  9 21  1  0  0  0  0
 10 22  1  0  0  0  0
 10 23  1  0  0  0  0
 10 24  1  0  0  0  0
 11 25  1  0  0  0  0
 11 26  1  0  0  0  0
 11 27  1  0  0  0  0
 12 28  1  0  0  0  0
 12 29  1  0  0  0  0
 12 30  1  0  0  0  0
M  END
> <PUBCHEM_COMPOUND_CID>
17857

> <PUBCHEM_COMPOUND_CANONICALIZED>
1

> <PUBCHEM_CACTVS_COMPLEXITY>
165

> <PUBCHEM_CACTVS_HBOND_ACCEPTOR>
2

> <PUBCHEM_CACTVS_HBOND_DONOR>
2

> <PUBCHEM_CACTVS_ROTATABLE_BOND>
1

> <PUBCHEM_CACTVS_SUBSKEYS>
AAADceBzAAAAAAAAAAAAAAAAAAAAAAAAAAAwAAAAAAAAAAAAAAAAHAAQAAAADijBAAQCAABAAAAAAAAAAAAAAAAAAAAAAIAAAAAAAAIAgAAAAAAAEAAAAAEQgEAPAAAAAAAAAAAAAASAAAAAAAAAAAAAAA==

> <PUBCHEM_IUPAC_OPENEYE_NAME>
3-(aminomethyl)-3,5,5-trimethyl-cyclohexanamine

> <PUBCHEM_IUPAC_CAS_NAME>
3-(aminomethyl)-3,5,5-trimethyl-1-cyclohexanamine

> <PUBCHEM_IUPAC_NAME_MARKUP>
3-(aminomethyl)-3,5,5-trimethylcyclohexan-1-amine

> <PUBCHEM_IUPAC_NAME>
3-(aminomethyl)-3,5,5-trimethylcyclohexan-1-amine

> <PUBCHEM_IUPAC_SYSTEMATIC_NAME>
3-(aminomethyl)-3,5,5-trimethyl-cyclohexan-1-amine

> <PUBCHEM_IUPAC_TRADITIONAL_NAME>
[3-(aminomethyl)-3,5,5-trimethyl-cyclohexyl]amine

> <PUBCHEM_IUPAC_INCHI>
InChI=1S/C10H22N2/c1-9(2)4-8(12)5-10(3,6-9)7-11/h8H,4-7,11-12H2,1-3H3

> <PUBCHEM_IUPAC_INCHIKEY>
RNLHGQLZWXBQNY-UHFFFAOYSA-N

> <PUBCHEM_XLOGP3_AA>
1.1

> <PUBCHEM_EXACT_MASS>
170.178298710

> <PUBCHEM_MOLECULAR_FORMULA>
C10H22N2

> <PUBCHEM_MOLECULAR_WEIGHT>
170.30

> <PUBCHEM_SMILES>
CC1(CC(CC(C1)(C)CN)N)C

> <PUBCHEM_OPENEYE_CAN_SMILES>
CC1(CC(CC(C1)(C)CN)N)C

> <PUBCHEM_OPENEYE_ISO_SMILES>
CC1(CC(CC(C1)(C)CN)N)C

> <PUBCHEM_CACTVS_TPSA>
52

> <PUBCHEM_MONOISOTOPIC_WEIGHT>
170.178298710

> <PUBCHEM_TOTAL_CHARGE>
0

> <PUBCHEM_HEAVY_ATOM_COUNT>
12

> <PUBCHEM_ATOM_DEF_STEREO_COUNT>
0

> <PUBCHEM_ATOM_UDEF_STEREO_COUNT>
2

> <PUBCHEM_BOND_DEF_STEREO_COUNT>
0

> <PUBCHEM_BOND_UDEF_STEREO_COUNT>
0

> <PUBCHEM_ISOTOPIC_ATOM_COUNT>
0

> <PUBCHEM_COMPONENT_COUNT>
1

> <PUBCHEM_CACTVS_TAUTO_COUNT>
-1

> <PUBCHEM_COORDINATE_TYPE>
1
5
255

> <PUBCHEM_BONDANNOTATIONS>
8  1  3
3  10  3

$$$$
