18137
  -OEChem-04042512472D

 27 27  0     0  0  0  0  0  0999 V2000
    3.5000    0.7500    0.0000 Si  0  0  0  0  0  0  0  0  0  0  0  0
    3.5000    1.7500    0.0000 O   0  0  0  0  0  0  0  0  0  0  0  0
    4.5000    0.7500    0.0000 O   0  0  0  0  0  0  0  0  0  0  0  0
    2.5000    0.7500    0.0000 O   0  0  0  0  0  0  0  0  0  0  0  0
    3.5000   -0.2500    0.0000 C   0  0  0  0  0  0  0  0  0  0  0  0
    4.3660   -0.7500    0.0000 C   0  0  0  0  0  0  0  0  0  0  0  0
    2.6340   -0.7500    0.0000 C   0  0  0  0  0  0  0  0  0  0  0  0
    4.3660   -1.7500    0.0000 C   0  0  0  0  0  0  0  0  0  0  0  0
    2.6340   -1.7500    0.0000 C   0  0  0  0  0  0  0  0  0  0  0  0
    3.5000   -2.2500    0.0000 C   0  0  0  0  0  0  0  0  0  0  0  0
    4.3660    2.2500    0.0000 C   0  0  0  0  0  0  0  0  0  0  0  0
    5.0000    1.6160    0.0000 C   0  0  0  0  0  0  0  0  0  0  0  0
    2.0000    1.6160    0.0000 C   0  0  0  0  0  0  0  0  0  0  0  0
    4.9030   -0.4400    0.0000 H   0  0  0  0  0  0  0  0  0  0  0  0
    2.0970   -0.4400    0.0000 H   0  0  0  0  0  0  0  0  0  0  0  0
    4.9030   -2.0600    0.0000 H   0  0  0  0  0  0  0  0  0  0  0  0
    2.0970   -2.0600    0.0000 H   0  0  0  0  0  0  0  0  0  0  0  0
    3.5000   -2.8700    0.0000 H   0  0  0  0  0  0  0  0  0  0  0  0
    4.6760    1.7131    0.0000 H   0  0  0  0  0  0  0  0  0  0  0  0
    4.9030    2.5600    0.0000 H   0  0  0  0  0  0  0  0  0  0  0  0
    4.0560    2.7869    0.0000 H   0  0  0  0  0  0  0  0  0  0  0  0
    5.5369    1.3060    0.0000 H   0  0  0  0  0  0  0  0  0  0  0  0
    5.3100    2.1530    0.0000 H   0  0  0  0  0  0  0  0  0  0  0  0
    4.4631    1.9260    0.0000 H   0  0  0  0  0  0  0  0  0  0  0  0
    2.5369    1.9260    0.0000 H   0  0  0  0  0  0  0  0  0  0  0  0
    1.6900    2.1530    0.0000 H   0  0  0  0  0  0  0  0  0  0  0  0
    1.4631    1.3060    0.0000 H   0  0  0  0  0  0  0  0  0  0  0  0
  1  2  1  0  0  0  0
  1  3  1  0  0  0  0
  1  4  1  0  0  0  0
  1  5  1  0  0  0  0
  2 11  1  0  0  0  0
  3 12  1  0  0  0  0
  4 13  1  0  0  0  0
  5  6  2  0  0  0  0
  5  7  1  0  0  0  0
  6  8  1  0  0  0  0
  6 14  1  0  0  0  0
  7  9  2  0  0  0  0
  7 15  1  0  0  0  0
  8 10  2  0  0  0  0
  8 16  1  0  0  0  0
  9 10  1  0  0  0  0
  9 17  1  0  0  0  0
 10 18  1  0  0  0  0
 11 19  1  0  0  0  0
 11 20  1  0  0  0  0
 11 21  1  0  0  0  0
 12 22  1  0  0  0  0
 12 23  1  0  0  0  0
 12 24  1  0  0  0  0
 13 25  1  0  0  0  0
 13 26  1  0  0  0  0
 13 27  1  0  0  0  0
M  END
> <PUBCHEM_COMPOUND_CID>
18137

> <PUBCHEM_COMPOUND_CANONICALIZED>
1

> <PUBCHEM_CACTVS_COMPLEXITY>
134

> <PUBCHEM_CACTVS_HBOND_ACCEPTOR>
3

> <PUBCHEM_CACTVS_HBOND_DONOR>
0

> <PUBCHEM_CACTVS_ROTATABLE_BOND>
4

> <PUBCHEM_CACTVS_SUBSKEYS>
AAADccBwMAgAAAAAAAAAAAAAAAAAAAAAAAAwAAAAAAAAAAABAAAAGhAAAEAACACAMAIyAIAAAACAACBCAAACAAAgAAAIiAAAAIgIICKAERCAIAAggAAIiAcAAAAAAAAAAAAAAAAAAAAAAAAAAAAAAAAAAA==

> <PUBCHEM_IUPAC_OPENEYE_NAME>
trimethoxy(phenyl)silane

> <PUBCHEM_IUPAC_CAS_NAME>
trimethoxy(phenyl)silane

> <PUBCHEM_IUPAC_NAME_MARKUP>
trimethoxy(phenyl)silane

> <PUBCHEM_IUPAC_NAME>
trimethoxy(phenyl)silane

> <PUBCHEM_IUPAC_SYSTEMATIC_NAME>
trimethoxy(phenyl)silane

> <PUBCHEM_IUPAC_TRADITIONAL_NAME>
trimethoxy(phenyl)silane

> <PUBCHEM_IUPAC_INCHI>
InChI=1S/C9H14O3Si/c1-10-13(11-2,12-3)9-7-5-4-6-8-9/h4-8H,1-3H3

> <PUBCHEM_IUPAC_INCHIKEY>
ZNOCGWVLWPVKAO-UHFFFAOYSA-N

> <PUBCHEM_EXACT_MASS>
198.07122084

> <PUBCHEM_MOLECULAR_FORMULA>
C9H14O3Si

> <PUBCHEM_MOLECULAR_WEIGHT>
198.29

> <PUBCHEM_SMILES>
CO[Si](C1=CC=CC=C1)(OC)OC

> <PUBCHEM_OPENEYE_CAN_SMILES>
CO[Si](C1=CC=CC=C1)(OC)OC

> <PUBCHEM_OPENEYE_ISO_SMILES>
CO[Si](C1=CC=CC=C1)(OC)OC

> <PUBCHEM_CACTVS_TPSA>
27.7

> <PUBCHEM_MONOISOTOPIC_WEIGHT>
198.07122084

> <PUBCHEM_TOTAL_CHARGE>
0

> <PUBCHEM_HEAVY_ATOM_COUNT>
13

> <PUBCHEM_ATOM_DEF_STEREO_COUNT>
0

> <PUBCHEM_ATOM_UDEF_STEREO_COUNT>
0

> <PUBCHEM_BOND_DEF_STEREO_COUNT>
0

> <PUBCHEM_BOND_UDEF_STEREO_COUNT>
0

> <PUBCHEM_ISOTOPIC_ATOM_COUNT>
0

> <PUBCHEM_COMPONENT_COUNT>
1

> <PUBCHEM_CACTVS_TAUTO_COUNT>
-1

> <PUBCHEM_COORDINATE_TYPE>
1
5
255

> <PUBCHEM_BONDANNOTATIONS>
5  6  8
5  7  8
6  8  8
7  9  8
8  10  8
9  10  8

$$$$
