18205
  -OEChem-04042512122D

 23 22  0     1  0  0  0  0  0999 V2000
    1.7843    0.0000    0.0000 Cl  0  5  0  0  0  0  0  0  0  0  0  0
    2.9860    2.5000    0.0000 O   0  0  0  0  0  0  0  0  0  0  0  0
    1.6200    4.8660    0.0000 N   0  3  0  0  0  0  0  0  0  0  0  0
    2.4860    3.3660    0.0000 C   0  0  3  0  0  0  0  0  0  0  0  0
    1.6200    3.8660    0.0000 C   0  0  0  0  0  0  0  0  0  0  0  0
    3.4860    3.3660    0.0000 C   0  0  0  0  0  0  0  0  0  0  0  0
    1.6200    5.8660    0.0000 C   0  0  0  0  0  0  0  0  0  0  0  0
    0.6200    4.8660    0.0000 C   0  0  0  0  0  0  0  0  0  0  0  0
    2.6200    4.8660    0.0000 C   0  0  0  0  0  0  0  0  0  0  0  0
    2.0476    2.9276    0.0000 H   0  0  0  0  0  0  0  0  0  0  0  0
    1.0094    3.9737    0.0000 H   0  0  0  0  0  0  0  0  0  0  0  0
    1.4080    3.2834    0.0000 H   0  0  0  0  0  0  0  0  0  0  0  0
    4.0686    3.1540    0.0000 H   0  0  0  0  0  0  0  0  0  0  0  0
    3.5937    3.9766    0.0000 H   0  0  0  0  0  0  0  0  0  0  0  0
    2.2400    5.8660    0.0000 H   0  0  0  0  0  0  0  0  0  0  0  0
    1.6200    6.4860    0.0000 H   0  0  0  0  0  0  0  0  0  0  0  0
    1.0000    5.8660    0.0000 H   0  0  0  0  0  0  0  0  0  0  0  0
    0.6200    5.4860    0.0000 H   0  0  0  0  0  0  0  0  0  0  0  0
    0.0000    4.8660    0.0000 H   0  0  0  0  0  0  0  0  0  0  0  0
    0.6200    4.2460    0.0000 H   0  0  0  0  0  0  0  0  0  0  0  0
    2.6200    4.2460    0.0000 H   0  0  0  0  0  0  0  0  0  0  0  0
    3.2400    4.8660    0.0000 H   0  0  0  0  0  0  0  0  0  0  0  0
    2.6200    5.4860    0.0000 H   0  0  0  0  0  0  0  0  0  0  0  0
  2  4  1  0  0  0  0
  2  6  1  0  0  0  0
  3  5  1  0  0  0  0
  3  7  1  0  0  0  0
  3  8  1  0  0  0  0
  3  9  1  0  0  0  0
  4  5  1  0  0  0  0
  4  6  1  0  0  0  0
  4 10  1  0  0  0  0
  5 11  1  0  0  0  0
  5 12  1  0  0  0  0
  6 13  1  0  0  0  0
  6 14  1  0  0  0  0
  7 15  1  0  0  0  0
  7 16  1  0  0  0  0
  7 17  1  0  0  0  0
  8 18  1  0  0  0  0
  8 19  1  0  0  0  0
  8 20  1  0  0  0  0
  9 21  1  0  0  0  0
  9 22  1  0  0  0  0
  9 23  1  0  0  0  0
M  CHG  2   1  -1   3   1
M  END
> <PUBCHEM_COMPOUND_CID>
18205

> <PUBCHEM_COMPOUND_CANONICALIZED>
1

> <PUBCHEM_CACTVS_COMPLEXITY>
85

> <PUBCHEM_CACTVS_HBOND_ACCEPTOR>
2

> <PUBCHEM_CACTVS_HBOND_DONOR>
0

> <PUBCHEM_CACTVS_ROTATABLE_BOND>
2

> <PUBCHEM_CACTVS_SUBSKEYS>
AAADccBiIAAEAAAAAAAAAAAAEgAAAAAAAAAAAAAAAAAAAAAAAAAAHgAAAAAACBThgAYCAAMABAAAAAAAAAAAAAAAAAAAAAAIAAACAAAAAAAFAAACAAAQAAAAAAAAAAAAAAAAAAAAAAAAAAAAAAAAAAAAAA==

> <PUBCHEM_IUPAC_OPENEYE_NAME>
trimethyl(oxiran-2-ylmethyl)ammonium;chloride

> <PUBCHEM_IUPAC_CAS_NAME>
trimethyl(2-oxiranylmethyl)ammonium;chloride

> <PUBCHEM_IUPAC_NAME_MARKUP>
trimethyl(oxiran-2-ylmethyl)azanium;chloride

> <PUBCHEM_IUPAC_NAME>
trimethyl(oxiran-2-ylmethyl)azanium;chloride

> <PUBCHEM_IUPAC_SYSTEMATIC_NAME>
trimethyl(oxiran-2-ylmethyl)azanium;chloride

> <PUBCHEM_IUPAC_TRADITIONAL_NAME>
glycidyl(trimethyl)ammonium;chloride

> <PUBCHEM_IUPAC_INCHI>
InChI=1S/C6H14NO.ClH/c1-7(2,3)4-6-5-8-6;/h6H,4-5H2,1-3H3;1H/q+1;/p-1

> <PUBCHEM_IUPAC_INCHIKEY>
PUVAFTRIIUSGLK-UHFFFAOYSA-M

> <PUBCHEM_EXACT_MASS>
151.0763918

> <PUBCHEM_MOLECULAR_FORMULA>
C6H14ClNO

> <PUBCHEM_MOLECULAR_WEIGHT>
151.63

> <PUBCHEM_SMILES>
C[N+](C)(C)CC1CO1.[Cl-]

> <PUBCHEM_OPENEYE_CAN_SMILES>
C[N+](C)(C)CC1CO1.[Cl-]

> <PUBCHEM_OPENEYE_ISO_SMILES>
C[N+](C)(C)CC1CO1.[Cl-]

> <PUBCHEM_CACTVS_TPSA>
12.5

> <PUBCHEM_MONOISOTOPIC_WEIGHT>
151.0763918

> <PUBCHEM_TOTAL_CHARGE>
0

> <PUBCHEM_HEAVY_ATOM_COUNT>
9

> <PUBCHEM_ATOM_DEF_STEREO_COUNT>
0

> <PUBCHEM_ATOM_UDEF_STEREO_COUNT>
1

> <PUBCHEM_BOND_DEF_STEREO_COUNT>
0

> <PUBCHEM_BOND_UDEF_STEREO_COUNT>
0

> <PUBCHEM_ISOTOPIC_ATOM_COUNT>
0

> <PUBCHEM_COMPONENT_COUNT>
2

> <PUBCHEM_CACTVS_TAUTO_COUNT>
-1

> <PUBCHEM_COORDINATE_TYPE>
1
5
255

> <PUBCHEM_BONDANNOTATIONS>
4  5  3

$$$$
