18218218
  -OEChem-03202506192D

 38 37  0     1  0  0  0  0  0999 V2000
    6.0010   -0.0950    0.0000 O   0  0  0  0  0  0  0  0  0  0  0  0
    2.5369    0.9050    0.0000 O   0  0  0  0  0  0  0  0  0  0  0  0
    3.4030    2.4050    0.0000 O   0  0  0  0  0  0  0  0  0  0  0  0
    2.5369   -2.0950    0.0000 O   0  0  0  0  0  0  0  0  0  0  0  0
    4.2690   -2.0950    0.0000 O   0  0  0  0  0  0  0  0  0  0  0  0
    5.1350    1.4050    0.0000 N   0  0  0  0  0  0  0  0  0  0  0  0
    6.8671    2.4050    0.0000 N   0  0  0  0  0  0  0  0  0  0  0  0
    7.7331    0.9050    0.0000 C   0  0  3  0  0  0  0  0  0  0  0  0
    6.8671    1.4050    0.0000 C   0  0  3  0  0  0  0  0  0  0  0  0
    8.5991    1.4050    0.0000 C   0  0  0  0  0  0  0  0  0  0  0  0
    4.2690    0.9050    0.0000 C   0  0  3  0  0  0  0  0  0  0  0  0
    6.0010    0.9050    0.0000 C   0  0  0  0  0  0  0  0  0  0  0  0
    7.7331   -0.0950    0.0000 C   0  0  0  0  0  0  0  0  0  0  0  0
    4.2690   -0.0950    0.0000 C   0  0  0  0  0  0  0  0  0  0  0  0
    9.4651    0.9050    0.0000 C   0  0  0  0  0  0  0  0  0  0  0  0
    3.4030   -0.5950    0.0000 C   0  0  0  0  0  0  0  0  0  0  0  0
    3.4030    1.4050    0.0000 C   0  0  0  0  0  0  0  0  0  0  0  0
    3.4030   -1.5950    0.0000 C   0  0  0  0  0  0  0  0  0  0  0  0
    8.2700    0.5950    0.0000 H   0  0  0  0  0  0  0  0  0  0  0  0
    6.3301    1.7150    0.0000 H   0  0  0  0  0  0  0  0  0  0  0  0
    8.9976    1.8800    0.0000 H   0  0  0  0  0  0  0  0  0  0  0  0
    8.2006    1.8800    0.0000 H   0  0  0  0  0  0  0  0  0  0  0  0
    4.2690    1.5250    0.0000 H   0  0  0  0  0  0  0  0  0  0  0  0
    7.1131   -0.0950    0.0000 H   0  0  0  0  0  0  0  0  0  0  0  0
    7.7331   -0.7150    0.0000 H   0  0  0  0  0  0  0  0  0  0  0  0
    8.3531   -0.0950    0.0000 H   0  0  0  0  0  0  0  0  0  0  0  0
    5.1350    2.0250    0.0000 H   0  0  0  0  0  0  0  0  0  0  0  0
    4.4810   -0.6776    0.0000 H   0  0  0  0  0  0  0  0  0  0  0  0
    4.8796    0.0127    0.0000 H   0  0  0  0  0  0  0  0  0  0  0  0
    9.1551    0.3681    0.0000 H   0  0  0  0  0  0  0  0  0  0  0  0
   10.0021    0.5950    0.0000 H   0  0  0  0  0  0  0  0  0  0  0  0
    9.7751    1.4419    0.0000 H   0  0  0  0  0  0  0  0  0  0  0  0
    7.4040    2.7150    0.0000 H   0  0  0  0  0  0  0  0  0  0  0  0
    6.3301    2.7150    0.0000 H   0  0  0  0  0  0  0  0  0  0  0  0
    3.1909   -0.0124    0.0000 H   0  0  0  0  0  0  0  0  0  0  0  0
    2.7924   -0.7027    0.0000 H   0  0  0  0  0  0  0  0  0  0  0  0
    2.0000    1.2150    0.0000 H   0  0  0  0  0  0  0  0  0  0  0  0
    2.5369   -2.7150    0.0000 H   0  0  0  0  0  0  0  0  0  0  0  0
  1 12  2  0  0  0  0
  2 17  1  0  0  0  0
  2 37  1  0  0  0  0
  3 17  2  0  0  0  0
  4 18  1  0  0  0  0
  4 38  1  0  0  0  0
  5 18  2  0  0  0  0
  6 11  1  0  0  0  0
  6 12  1  0  0  0  0
  6 27  1  0  0  0  0
  7  9  1  0  0  0  0
  7 33  1  0  0  0  0
  7 34  1  0  0  0  0
  8  9  1  0  0  0  0
  8 10  1  0  0  0  0
  8 13  1  0  0  0  0
  8 19  1  0  0  0  0
  9 12  1  0  0  0  0
  9 20  1  0  0  0  0
 10 15  1  0  0  0  0
 10 21  1  0  0  0  0
 10 22  1  0  0  0  0
 11 14  1  0  0  0  0
 11 17  1  0  0  0  0
 11 23  1  0  0  0  0
 13 24  1  0  0  0  0
 13 25  1  0  0  0  0
 13 26  1  0  0  0  0
 14 16  1  0  0  0  0
 14 28  1  0  0  0  0
 14 29  1  0  0  0  0
 15 30  1  0  0  0  0
 15 31  1  0  0  0  0
 15 32  1  0  0  0  0
 16 18  1  0  0  0  0
 16 35  1  0  0  0  0
 16 36  1  0  0  0  0
M  END
> <PUBCHEM_COMPOUND_CID>
18218218

> <PUBCHEM_COMPOUND_CANONICALIZED>
1

> <PUBCHEM_CACTVS_COMPLEXITY>
319

> <PUBCHEM_CACTVS_HBOND_ACCEPTOR>
6

> <PUBCHEM_CACTVS_HBOND_DONOR>
4

> <PUBCHEM_CACTVS_ROTATABLE_BOND>
8

> <PUBCHEM_CACTVS_SUBSKEYS>
AAADceBzOAAAAAAAAAAAAAAAAAAAAAAAAAAAAAAAAAAAAAAAAAAAHgAQCAAADSjBgAQCCALAAgAIAAGQGAAAAAAAAAAAAIGIAAACQBIAgCAUQAAEFgCQAAC8JgAKAAAAAAAAAAAAAAAAAAAAAAAAAAAAAA==

> <PUBCHEM_IUPAC_OPENEYE_NAME>
2-[(2-amino-3-methyl-pentanoyl)amino]pentanedioic acid

> <PUBCHEM_IUPAC_CAS_NAME>
2-[(2-amino-3-methyl-1-oxopentyl)amino]pentanedioic acid

> <PUBCHEM_IUPAC_NAME_MARKUP>
2-[(2-amino-3-methylpentanoyl)amino]pentanedioic acid

> <PUBCHEM_IUPAC_NAME>
2-[(2-amino-3-methylpentanoyl)amino]pentanedioic acid

> <PUBCHEM_IUPAC_SYSTEMATIC_NAME>
2-[(2-azanyl-3-methyl-pentanoyl)amino]pentanedioic acid

> <PUBCHEM_IUPAC_TRADITIONAL_NAME>
2-[(2-amino-3-methyl-pentanoyl)amino]glutaric acid

> <PUBCHEM_IUPAC_INCHI>
InChI=1S/C11H20N2O5/c1-3-6(2)9(12)10(16)13-7(11(17)18)4-5-8(14)15/h6-7,9H,3-5,12H2,1-2H3,(H,13,16)(H,14,15)(H,17,18)

> <PUBCHEM_IUPAC_INCHIKEY>
KTGFOCFYOZQVRJ-UHFFFAOYSA-N

> <PUBCHEM_XLOGP3>
-3.5

> <PUBCHEM_EXACT_MASS>
260.13722174

> <PUBCHEM_MOLECULAR_FORMULA>
C11H20N2O5

> <PUBCHEM_MOLECULAR_WEIGHT>
260.29

> <PUBCHEM_SMILES>
CCC(C)C(C(=O)NC(CCC(=O)O)C(=O)O)N

> <PUBCHEM_OPENEYE_CAN_SMILES>
CCC(C)C(C(=O)NC(CCC(=O)O)C(=O)O)N

> <PUBCHEM_OPENEYE_ISO_SMILES>
CCC(C)C(C(=O)NC(CCC(=O)O)C(=O)O)N

> <PUBCHEM_CACTVS_TPSA>
130

> <PUBCHEM_MONOISOTOPIC_WEIGHT>
260.13722174

> <PUBCHEM_TOTAL_CHARGE>
0

> <PUBCHEM_HEAVY_ATOM_COUNT>
18

> <PUBCHEM_ATOM_DEF_STEREO_COUNT>
0

> <PUBCHEM_ATOM_UDEF_STEREO_COUNT>
3

> <PUBCHEM_BOND_DEF_STEREO_COUNT>
0

> <PUBCHEM_BOND_UDEF_STEREO_COUNT>
0

> <PUBCHEM_ISOTOPIC_ATOM_COUNT>
0

> <PUBCHEM_COMPONENT_COUNT>
1

> <PUBCHEM_CACTVS_TAUTO_COUNT>
-1

> <PUBCHEM_COORDINATE_TYPE>
1
5
255

> <PUBCHEM_BONDANNOTATIONS>
11  14  3
9  7  3
8  13  3

$$$$
