18666587
  -OEChem-04042505472D

 60 63  0     1  0  0  0  0  0999 V2000
    8.0901   -0.8797    0.0000 O   0  0  0  0  0  0  0  0  0  0  0  0
    6.3301    1.1550    0.0000 O   0  0  0  0  0  0  0  0  0  0  0  0
    5.4641   -0.3450    0.0000 O   0  0  0  0  0  0  0  0  0  0  0  0
    8.9962    0.6758    0.0000 O   0  0  0  0  0  0  0  0  0  0  0  0
    7.1962   -2.3450    0.0000 O   0  0  0  0  0  0  0  0  0  0  0  0
    5.4641   -3.3450    0.0000 O   0  0  0  0  0  0  0  0  0  0  0  0
    7.1962   -0.3450    0.0000 C   0  0  2  0  0  0  0  0  0  0  0  0
    7.1962    0.6550    0.0000 C   0  0  2  0  0  0  0  0  0  0  0  0
    6.3301   -0.8450    0.0000 C   0  0  1  0  0  0  0  0  0  0  0  0
    8.0901    1.1897    0.0000 C   0  0  0  0  0  0  0  0  0  0  0  0
    6.3301   -1.8450    0.0000 C   0  0  1  0  0  0  0  0  0  0  0  0
    5.4641    0.6550    0.0000 C   0  0  3  0  0  0  0  0  0  0  0  0
    8.9962   -0.3658    0.0000 C   0  0  3  0  0  0  0  0  0  0  0  0
    5.4641   -2.3450    0.0000 C   0  0  0  0  0  0  0  0  0  0  0  0
    4.5981    1.1550    0.0000 C   0  0  0  0  0  0  0  0  0  0  0  0
    9.8602   -0.8692    0.0000 C   0  0  0  0  0  0  0  0  0  0  0  0
    4.5981    2.1550    0.0000 C   0  0  0  0  0  0  0  0  0  0  0  0
    3.7320    0.6550    0.0000 C   0  0  0  0  0  0  0  0  0  0  0  0
   10.7282   -0.3725    0.0000 C   0  0  0  0  0  0  0  0  0  0  0  0
    9.8564   -1.8691    0.0000 C   0  0  0  0  0  0  0  0  0  0  0  0
    3.7320    2.6550    0.0000 C   0  0  0  0  0  0  0  0  0  0  0  0
   11.5923   -0.8758    0.0000 C   0  0  0  0  0  0  0  0  0  0  0  0
    2.8660    1.1550    0.0000 C   0  0  0  0  0  0  0  0  0  0  0  0
    2.8660    2.1550    0.0000 C   0  0  0  0  0  0  0  0  0  0  0  0
   10.7205   -2.3725    0.0000 C   0  0  0  0  0  0  0  0  0  0  0  0
   11.5884   -1.8758    0.0000 C   0  0  0  0  0  0  0  0  0  0  0  0
    3.7320    3.6550    0.0000 C   0  0  0  0  0  0  0  0  0  0  0  0
   12.4602   -0.3792    0.0000 C   0  0  0  0  0  0  0  0  0  0  0  0
    2.0000    2.6550    0.0000 C   0  0  0  0  0  0  0  0  0  0  0  0
   12.4525   -2.3792    0.0000 C   0  0  0  0  0  0  0  0  0  0  0  0
    7.1896   -1.1950    0.0000 H   0  0  0  0  0  0  0  0  0  0  0  0
    7.1896    1.5050    0.0000 H   0  0  0  0  0  0  0  0  0  0  0  0
    5.5940   -1.2700    0.0000 H   0  0  0  0  0  0  0  0  0  0  0  0
    8.4837    1.6687    0.0000 H   0  0  0  0  0  0  0  0  0  0  0  0
    7.6855    1.6594    0.0000 H   0  0  0  0  0  0  0  0  0  0  0  0
    6.8671   -1.5350    0.0000 H   0  0  0  0  0  0  0  0  0  0  0  0
    5.4641    1.2750    0.0000 H   0  0  0  0  0  0  0  0  0  0  0  0
    8.9926   -0.9858    0.0000 H   0  0  0  0  0  0  0  0  0  0  0  0
    5.2520   -1.7624    0.0000 H   0  0  0  0  0  0  0  0  0  0  0  0
    4.8535   -2.4527    0.0000 H   0  0  0  0  0  0  0  0  0  0  0  0
    7.1962   -2.9650    0.0000 H   0  0  0  0  0  0  0  0  0  0  0  0
    5.1350    2.4650    0.0000 H   0  0  0  0  0  0  0  0  0  0  0  0
    3.7320    0.0350    0.0000 H   0  0  0  0  0  0  0  0  0  0  0  0
   10.7306    0.2475    0.0000 H   0  0  0  0  0  0  0  0  0  0  0  0
    9.3183   -2.1771    0.0000 H   0  0  0  0  0  0  0  0  0  0  0  0
    4.9272   -3.6550    0.0000 H   0  0  0  0  0  0  0  0  0  0  0  0
    2.3291    0.8450    0.0000 H   0  0  0  0  0  0  0  0  0  0  0  0
   10.7181   -2.9925    0.0000 H   0  0  0  0  0  0  0  0  0  0  0  0
    4.3520    3.6550    0.0000 H   0  0  0  0  0  0  0  0  0  0  0  0
    3.7320    4.2750    0.0000 H   0  0  0  0  0  0  0  0  0  0  0  0
    3.1120    3.6550    0.0000 H   0  0  0  0  0  0  0  0  0  0  0  0
   12.7682   -0.9173    0.0000 H   0  0  0  0  0  0  0  0  0  0  0  0
   12.9984   -0.0712    0.0000 H   0  0  0  0  0  0  0  0  0  0  0  0
   12.1523    0.1590    0.0000 H   0  0  0  0  0  0  0  0  0  0  0  0
    2.3100    3.1919    0.0000 H   0  0  0  0  0  0  0  0  0  0  0  0
    1.4631    2.9650    0.0000 H   0  0  0  0  0  0  0  0  0  0  0  0
    1.6900    2.1181    0.0000 H   0  0  0  0  0  0  0  0  0  0  0  0
   12.1405   -2.9149    0.0000 H   0  0  0  0  0  0  0  0  0  0  0  0
   12.9883   -2.6912    0.0000 H   0  0  0  0  0  0  0  0  0  0  0  0
   12.7646   -1.8434    0.0000 H   0  0  0  0  0  0  0  0  0  0  0  0
  1  7  1  0  0  0  0
  1 13  1  0  0  0  0
  2  8  1  0  0  0  0
  2 12  1  0  0  0  0
  3  9  1  0  0  0  0
  3 12  1  0  0  0  0
  4 10  1  0  0  0  0
  4 13  1  0  0  0  0
 11  5  1  6  0  0  0
  5 41  1  0  0  0  0
  6 14  1  0  0  0  0
  6 46  1  0  0  0  0
  7  8  1  0  0  0  0
  7  9  1  0  0  0  0
  7 31  1  6  0  0  0
  8 10  1  0  0  0  0
  8 32  1  6  0  0  0
  9 11  1  0  0  0  0
  9 33  1  6  0  0  0
 10 34  1  0  0  0  0
 10 35  1  0  0  0  0
 11 14  1  0  0  0  0
 11 36  1  0  0  0  0
 12 15  1  0  0  0  0
 12 37  1  0  0  0  0
 13 16  1  0  0  0  0
 13 38  1  0  0  0  0
 14 39  1  0  0  0  0
 14 40  1  0  0  0  0
 15 17  2  0  0  0  0
 15 18  1  0  0  0  0
 16 19  2  0  0  0  0
 16 20  1  0  0  0  0
 17 21  1  0  0  0  0
 17 42  1  0  0  0  0
 18 23  2  0  0  0  0
 18 43  1  0  0  0  0
 19 22  1  0  0  0  0
 19 44  1  0  0  0  0
 20 25  2  0  0  0  0
 20 45  1  0  0  0  0
 21 24  2  0  0  0  0
 21 27  1  0  0  0  0
 22 26  2  0  0  0  0
 22 28  1  0  0  0  0
 23 24  1  0  0  0  0
 23 47  1  0  0  0  0
 24 29  1  0  0  0  0
 25 26  1  0  0  0  0
 25 48  1  0  0  0  0
 26 30  1  0  0  0  0
 27 49  1  0  0  0  0
 27 50  1  0  0  0  0
 27 51  1  0  0  0  0
 28 52  1  0  0  0  0
 28 53  1  0  0  0  0
 28 54  1  0  0  0  0
 29 55  1  0  0  0  0
 29 56  1  0  0  0  0
 29 57  1  0  0  0  0
 30 58  1  0  0  0  0
 30 59  1  0  0  0  0
 30 60  1  0  0  0  0
M  END
> <PUBCHEM_COMPOUND_CID>
18666587

> <PUBCHEM_COMPOUND_CANONICALIZED>
1

> <PUBCHEM_CACTVS_COMPLEXITY>
558

> <PUBCHEM_CACTVS_HBOND_ACCEPTOR>
6

> <PUBCHEM_CACTVS_HBOND_DONOR>
2

> <PUBCHEM_CACTVS_ROTATABLE_BOND>
4

> <PUBCHEM_CACTVS_SUBSKEYS>
AAADceB4OAAAAAAAAAAAAAAAAAAAAAAAAAA0aIEAAAAAAACRQAAAGgAACAAADBSwmAMyCIAABgCAAiBCAAACAAAgAAAIiAAACIgZNiKAMRiicAAlwAEPqAfA4PwOwAACAAAQAACAAAQAACAAAAAAAAAAAA==

> <PUBCHEM_IUPAC_OPENEYE_NAME>
(1R)-1-[(4R,4aR,8aS)-2,6-bis(3,4-dimethylphenyl)-4,4a,8,8a-tetrahydro-[1,3]dioxino[5,4-d][1,3]dioxin-4-yl]ethane-1,2-diol

> <PUBCHEM_IUPAC_CAS_NAME>
(1R)-1-[(4R,4aR,8aS)-2,6-bis(3,4-dimethylphenyl)-4,4a,8,8a-tetrahydro-[1,3]dioxino[5,4-d][1,3]dioxin-4-yl]ethane-1,2-diol

> <PUBCHEM_IUPAC_NAME_MARKUP>
(1<I>R</I>)-1-[(4<I>R</I>,4<I>a</I><I>R</I>,8<I>a</I><I>S</I>)-2,6-bis(3,4-dimethylphenyl)-4,4<I>a</I>,8,8<I>a</I>-tetrahydro-[1,3]dioxino[5,4-d][1,3]dioxin-4-yl]ethane-1,2-diol

> <PUBCHEM_IUPAC_NAME>
(1R)-1-[(4R,4aR,8aS)-2,6-bis(3,4-dimethylphenyl)-4,4a,8,8a-tetrahydro-[1,3]dioxino[5,4-d][1,3]dioxin-4-yl]ethane-1,2-diol

> <PUBCHEM_IUPAC_SYSTEMATIC_NAME>
(1R)-1-[(4R,4aR,8aS)-2,6-bis(3,4-dimethylphenyl)-4,4a,8,8a-tetrahydro-[1,3]dioxino[5,4-d][1,3]dioxin-4-yl]ethane-1,2-diol

> <PUBCHEM_IUPAC_TRADITIONAL_NAME>
(1R)-1-[(4R,4aR,8aS)-2,6-bis(3,4-dimethylphenyl)-4,4a,8,8a-tetrahydro-[1,3]dioxino[5,4-d][1,3]dioxin-4-yl]ethane-1,2-diol

> <PUBCHEM_IUPAC_INCHI>
InChI=1S/C24H30O6/c1-13-5-7-17(9-15(13)3)23-27-12-20-22(30-23)21(19(26)11-25)29-24(28-20)18-8-6-14(2)16(4)10-18/h5-10,19-26H,11-12H2,1-4H3/t19-,20+,21-,22-,23?,24?/m1/s1

> <PUBCHEM_IUPAC_INCHIKEY>
YWEWWNPYDDHZDI-JJKKTNRVSA-N

> <PUBCHEM_XLOGP3_AA>
2.8

> <PUBCHEM_EXACT_MASS>
414.20423867

> <PUBCHEM_MOLECULAR_FORMULA>
C24H30O6

> <PUBCHEM_MOLECULAR_WEIGHT>
414.5

> <PUBCHEM_SMILES>
CC1=C(C=C(C=C1)C2OC[C@H]3[C@@H](O2)[C@H](OC(O3)C4=CC(=C(C=C4)C)C)[C@@H](CO)O)C

> <PUBCHEM_OPENEYE_CAN_SMILES>
CC1=C(C=C(C=C1)C2OCC3C(O2)C(OC(O3)C4=CC(=C(C=C4)C)C)C(CO)O)C

> <PUBCHEM_OPENEYE_ISO_SMILES>
CC1=C(C=C(C=C1)C2OC[C@H]3[C@@H](O2)[C@H](OC(O3)C4=CC(=C(C=C4)C)C)[C@@H](CO)O)C

> <PUBCHEM_CACTVS_TPSA>
77.4

> <PUBCHEM_MONOISOTOPIC_WEIGHT>
414.20423867

> <PUBCHEM_TOTAL_CHARGE>
0

> <PUBCHEM_HEAVY_ATOM_COUNT>
30

> <PUBCHEM_ATOM_DEF_STEREO_COUNT>
4

> <PUBCHEM_ATOM_UDEF_STEREO_COUNT>
2

> <PUBCHEM_BOND_DEF_STEREO_COUNT>
0

> <PUBCHEM_BOND_UDEF_STEREO_COUNT>
0

> <PUBCHEM_ISOTOPIC_ATOM_COUNT>
0

> <PUBCHEM_COMPONENT_COUNT>
1

> <PUBCHEM_CACTVS_TAUTO_COUNT>
-1

> <PUBCHEM_COORDINATE_TYPE>
1
5
255

> <PUBCHEM_BONDANNOTATIONS>
12  15  3
13  16  3
15  17  8
15  18  8
16  19  8
16  20  8
17  21  8
18  23  8
19  22  8
20  25  8
21  24  8
22  26  8
23  24  8
25  26  8
11  5  6
7  31  6
8  32  6
9  33  6

$$$$
