18732
  -OEChem-04042512272D

 25 23  0     1  0  0  0  0  0999 V2000
    4.0010    0.0826    0.0000 Cl  0  0  0  0  0  0  0  0  0  0  0  0
    2.0190    4.9856    0.0000 Cl  0  5  0  0  0  0  0  0  0  0  0  0
    4.0010    2.0826    0.0000 O   0  0  0  0  0  0  0  0  0  0  0  0
    1.4030    1.5826    0.0000 N   0  3  0  0  0  0  0  0  0  0  0  0
    2.2690    2.0826    0.0000 C   0  0  0  0  0  0  0  0  0  0  0  0
    3.1350    1.5826    0.0000 C   0  0  3  0  0  0  0  0  0  0  0  0
    0.5369    1.0826    0.0000 C   0  0  0  0  0  0  0  0  0  0  0  0
    0.9030    2.4486    0.0000 C   0  0  0  0  0  0  0  0  0  0  0  0
    1.9030    0.7166    0.0000 C   0  0  0  0  0  0  0  0  0  0  0  0
    3.1350    0.5826    0.0000 C   0  0  0  0  0  0  0  0  0  0  0  0
    2.6675    2.5576    0.0000 H   0  0  0  0  0  0  0  0  0  0  0  0
    1.8705    2.5576    0.0000 H   0  0  0  0  0  0  0  0  0  0  0  0
    3.1350    2.2026    0.0000 H   0  0  0  0  0  0  0  0  0  0  0  0
    0.2269    1.6196    0.0000 H   0  0  0  0  0  0  0  0  0  0  0  0
    0.0000    0.7726    0.0000 H   0  0  0  0  0  0  0  0  0  0  0  0
    0.8469    0.5457    0.0000 H   0  0  0  0  0  0  0  0  0  0  0  0
    1.4399    2.7586    0.0000 H   0  0  0  0  0  0  0  0  0  0  0  0
    0.5930    2.9856    0.0000 H   0  0  0  0  0  0  0  0  0  0  0  0
    0.3660    2.1386    0.0000 H   0  0  0  0  0  0  0  0  0  0  0  0
    1.3660    0.4066    0.0000 H   0  0  0  0  0  0  0  0  0  0  0  0
    2.2130    0.1796    0.0000 H   0  0  0  0  0  0  0  0  0  0  0  0
    2.4399    1.0266    0.0000 H   0  0  0  0  0  0  0  0  0  0  0  0
    2.5244    0.6903    0.0000 H   0  0  0  0  0  0  0  0  0  0  0  0
    2.9230    0.0000    0.0000 H   0  0  0  0  0  0  0  0  0  0  0  0
    4.5380    1.7726    0.0000 H   0  0  0  0  0  0  0  0  0  0  0  0
  1 10  1  0  0  0  0
  3  6  1  0  0  0  0
  3 25  1  0  0  0  0
  4  5  1  0  0  0  0
  4  7  1  0  0  0  0
  4  8  1  0  0  0  0
  4  9  1  0  0  0  0
  5  6  1  0  0  0  0
  5 11  1  0  0  0  0
  5 12  1  0  0  0  0
  6 10  1  0  0  0  0
  6 13  1  0  0  0  0
  7 14  1  0  0  0  0
  7 15  1  0  0  0  0
  7 16  1  0  0  0  0
  8 17  1  0  0  0  0
  8 18  1  0  0  0  0
  8 19  1  0  0  0  0
  9 20  1  0  0  0  0
  9 21  1  0  0  0  0
  9 22  1  0  0  0  0
 10 23  1  0  0  0  0
 10 24  1  0  0  0  0
M  CHG  2   2  -1   4   1
M  END
> <PUBCHEM_COMPOUND_CID>
18732

> <PUBCHEM_COMPOUND_CANONICALIZED>
1

> <PUBCHEM_CACTVS_COMPLEXITY>
79.6

> <PUBCHEM_CACTVS_HBOND_ACCEPTOR>
2

> <PUBCHEM_CACTVS_HBOND_DONOR>
1

> <PUBCHEM_CACTVS_ROTATABLE_BOND>
3

> <PUBCHEM_CACTVS_SUBSKEYS>
AAADccBiIAAGAAAAAAAAAAAAAAAAAAAAAAAAAAAAAAAAAAAAAAAAHgIACAAACBfhgEYCAAMAAgAAAAAAAAAAAAAAAAAAAAAIAwACEAAAAAAEAAAAAAAQAAAAAAAAAAAAAAAAAAAAAAAAAAAAAAAAAAAAAA==

> <PUBCHEM_IUPAC_OPENEYE_NAME>
(3-chloro-2-hydroxy-propyl)-trimethyl-ammonium;chloride

> <PUBCHEM_IUPAC_CAS_NAME>
(3-chloro-2-hydroxypropyl)-trimethylammonium;chloride

> <PUBCHEM_IUPAC_NAME_MARKUP>
(3-chloro-2-hydroxypropyl)-trimethylazanium;chloride

> <PUBCHEM_IUPAC_NAME>
(3-chloro-2-hydroxypropyl)-trimethylazanium;chloride

> <PUBCHEM_IUPAC_SYSTEMATIC_NAME>
(3-chloranyl-2-oxidanyl-propyl)-trimethyl-azanium;chloride

> <PUBCHEM_IUPAC_TRADITIONAL_NAME>
(3-chloro-2-hydroxy-propyl)-trimethyl-ammonium;chloride

> <PUBCHEM_IUPAC_INCHI>
InChI=1S/C6H15ClNO.ClH/c1-8(2,3)5-6(9)4-7;/h6,9H,4-5H2,1-3H3;1H/q+1;/p-1

> <PUBCHEM_IUPAC_INCHIKEY>
CSPHGSFZFWKVDL-UHFFFAOYSA-M

> <PUBCHEM_EXACT_MASS>
187.0530695

> <PUBCHEM_MOLECULAR_FORMULA>
C6H15Cl2NO

> <PUBCHEM_MOLECULAR_WEIGHT>
188.09

> <PUBCHEM_SMILES>
C[N+](C)(C)CC(CCl)O.[Cl-]

> <PUBCHEM_OPENEYE_CAN_SMILES>
C[N+](C)(C)CC(CCl)O.[Cl-]

> <PUBCHEM_OPENEYE_ISO_SMILES>
C[N+](C)(C)CC(CCl)O.[Cl-]

> <PUBCHEM_CACTVS_TPSA>
20.2

> <PUBCHEM_MONOISOTOPIC_WEIGHT>
187.0530695

> <PUBCHEM_TOTAL_CHARGE>
0

> <PUBCHEM_HEAVY_ATOM_COUNT>
10

> <PUBCHEM_ATOM_DEF_STEREO_COUNT>
0

> <PUBCHEM_ATOM_UDEF_STEREO_COUNT>
1

> <PUBCHEM_BOND_DEF_STEREO_COUNT>
0

> <PUBCHEM_BOND_UDEF_STEREO_COUNT>
0

> <PUBCHEM_ISOTOPIC_ATOM_COUNT>
0

> <PUBCHEM_COMPONENT_COUNT>
2

> <PUBCHEM_CACTVS_TAUTO_COUNT>
-1

> <PUBCHEM_COORDINATE_TYPE>
1
5
255

> <PUBCHEM_BONDANNOTATIONS>
6  3  3

$$$$
