19596767
  -OEChem-04042505512D

 64 62  0     0  0  0  0  0  0999 V2000
    0.5369    5.7850    0.0000 O   0  0  0  0  0  0  0  0  0  0  0  0
    1.4030    4.2850    0.0000 O   0  0  0  0  0  0  0  0  0  0  0  0
    7.4651    0.3100    0.0000 O   0  0  0  0  0  0  0  0  0  0  0  0
    9.1972    1.3100    0.0000 O   0  0  0  0  0  0  0  0  0  0  0  0
    5.7331    1.3100    0.0000 O   0  0  0  0  0  0  0  0  0  0  0  0
    8.3312    5.2850    0.0000 C   0  0  0  0  0  0  0  0  0  0  0  0
    7.4651    5.7850    0.0000 C   0  0  0  0  0  0  0  0  0  0  0  0
    9.1972    5.7850    0.0000 C   0  0  0  0  0  0  0  0  0  0  0  0
    6.5991    5.2850    0.0000 C   0  0  0  0  0  0  0  0  0  0  0  0
   10.0632    5.2850    0.0000 C   0  0  0  0  0  0  0  0  0  0  0  0
    5.7331    5.7850    0.0000 C   0  0  0  0  0  0  0  0  0  0  0  0
   10.9292    5.7850    0.0000 C   0  0  0  0  0  0  0  0  0  0  0  0
    4.8671    5.2850    0.0000 C   0  0  0  0  0  0  0  0  0  0  0  0
   11.7953    5.2850    0.0000 C   0  0  0  0  0  0  0  0  0  0  0  0
    4.0010    5.7850    0.0000 C   0  0  0  0  0  0  0  0  0  0  0  0
   12.6613    5.7850    0.0000 C   0  0  0  0  0  0  0  0  0  0  0  0
    3.1350    5.2850    0.0000 C   0  0  0  0  0  0  0  0  0  0  0  0
   13.5273    5.2850    0.0000 C   0  0  0  0  0  0  0  0  0  0  0  0
    2.2690    5.7850    0.0000 C   0  0  0  0  0  0  0  0  0  0  0  0
   14.3933    5.7850    0.0000 C   0  0  0  0  0  0  0  0  0  0  0  0
    1.4030    5.2850    0.0000 C   0  0  0  0  0  0  0  0  0  0  0  0
    7.4651    1.3100    0.0000 C   0  0  0  0  0  0  0  0  0  0  0  0
    8.3312    1.8100    0.0000 C   0  0  0  0  0  0  0  0  0  0  0  0
    6.5991    1.8100    0.0000 C   0  0  0  0  0  0  0  0  0  0  0  0
    7.9326    4.8100    0.0000 H   0  0  0  0  0  0  0  0  0  0  0  0
    8.7297    4.8100    0.0000 H   0  0  0  0  0  0  0  0  0  0  0  0
    7.8637    6.2599    0.0000 H   0  0  0  0  0  0  0  0  0  0  0  0
    7.0666    6.2599    0.0000 H   0  0  0  0  0  0  0  0  0  0  0  0
    9.5957    6.2599    0.0000 H   0  0  0  0  0  0  0  0  0  0  0  0
    8.7987    6.2599    0.0000 H   0  0  0  0  0  0  0  0  0  0  0  0
    6.2006    4.8100    0.0000 H   0  0  0  0  0  0  0  0  0  0  0  0
    6.9976    4.8100    0.0000 H   0  0  0  0  0  0  0  0  0  0  0  0
    9.6647    4.8100    0.0000 H   0  0  0  0  0  0  0  0  0  0  0  0
   10.4617    4.8100    0.0000 H   0  0  0  0  0  0  0  0  0  0  0  0
    6.1316    6.2599    0.0000 H   0  0  0  0  0  0  0  0  0  0  0  0
    5.3346    6.2599    0.0000 H   0  0  0  0  0  0  0  0  0  0  0  0
   11.3278    6.2599    0.0000 H   0  0  0  0  0  0  0  0  0  0  0  0
   10.5307    6.2599    0.0000 H   0  0  0  0  0  0  0  0  0  0  0  0
    4.4685    4.8100    0.0000 H   0  0  0  0  0  0  0  0  0  0  0  0
    5.2656    4.8100    0.0000 H   0  0  0  0  0  0  0  0  0  0  0  0
   11.3967    4.8100    0.0000 H   0  0  0  0  0  0  0  0  0  0  0  0
   12.1938    4.8100    0.0000 H   0  0  0  0  0  0  0  0  0  0  0  0
    4.3996    6.2599    0.0000 H   0  0  0  0  0  0  0  0  0  0  0  0
    3.6025    6.2599    0.0000 H   0  0  0  0  0  0  0  0  0  0  0  0
   13.0598    6.2599    0.0000 H   0  0  0  0  0  0  0  0  0  0  0  0
   12.2628    6.2599    0.0000 H   0  0  0  0  0  0  0  0  0  0  0  0
    2.7365    4.8100    0.0000 H   0  0  0  0  0  0  0  0  0  0  0  0
    3.5335    4.8100    0.0000 H   0  0  0  0  0  0  0  0  0  0  0  0
   13.1288    4.8100    0.0000 H   0  0  0  0  0  0  0  0  0  0  0  0
   13.9258    4.8100    0.0000 H   0  0  0  0  0  0  0  0  0  0  0  0
    2.6675    6.2599    0.0000 H   0  0  0  0  0  0  0  0  0  0  0  0
    1.8705    6.2599    0.0000 H   0  0  0  0  0  0  0  0  0  0  0  0
   14.7033    5.2480    0.0000 H   0  0  0  0  0  0  0  0  0  0  0  0
   14.9303    6.0950    0.0000 H   0  0  0  0  0  0  0  0  0  0  0  0
   14.0833    6.3219    0.0000 H   0  0  0  0  0  0  0  0  0  0  0  0
    0.0000    5.4750    0.0000 H   0  0  0  0  0  0  0  0  0  0  0  0
    8.0021    1.0000    0.0000 H   0  0  0  0  0  0  0  0  0  0  0  0
    8.7297    2.2849    0.0000 H   0  0  0  0  0  0  0  0  0  0  0  0
    7.9326    2.2849    0.0000 H   0  0  0  0  0  0  0  0  0  0  0  0
    6.9976    2.2849    0.0000 H   0  0  0  0  0  0  0  0  0  0  0  0
    6.2006    2.2849    0.0000 H   0  0  0  0  0  0  0  0  0  0  0  0
    6.9282    0.0000    0.0000 H   0  0  0  0  0  0  0  0  0  0  0  0
    9.7341    1.6200    0.0000 H   0  0  0  0  0  0  0  0  0  0  0  0
    5.1962    1.6200    0.0000 H   0  0  0  0  0  0  0  0  0  0  0  0
  1 21  1  0  0  0  0
  1 56  1  0  0  0  0
  2 21  2  0  0  0  0
  3 22  1  0  0  0  0
  3 62  1  0  0  0  0
  4 23  1  0  0  0  0
  4 63  1  0  0  0  0
  5 24  1  0  0  0  0
  5 64  1  0  0  0  0
  6  7  1  0  0  0  0
  6  8  1  0  0  0  0
  6 25  1  0  0  0  0
  6 26  1  0  0  0  0
  7  9  1  0  0  0  0
  7 27  1  0  0  0  0
  7 28  1  0  0  0  0
  8 10  1  0  0  0  0
  8 29  1  0  0  0  0
  8 30  1  0  0  0  0
  9 11  1  0  0  0  0
  9 31  1  0  0  0  0
  9 32  1  0  0  0  0
 10 12  1  0  0  0  0
 10 33  1  0  0  0  0
 10 34  1  0  0  0  0
 11 13  1  0  0  0  0
 11 35  1  0  0  0  0
 11 36  1  0  0  0  0
 12 14  1  0  0  0  0
 12 37  1  0  0  0  0
 12 38  1  0  0  0  0
 13 15  1  0  0  0  0
 13 39  1  0  0  0  0
 13 40  1  0  0  0  0
 14 16  1  0  0  0  0
 14 41  1  0  0  0  0
 14 42  1  0  0  0  0
 15 17  1  0  0  0  0
 15 43  1  0  0  0  0
 15 44  1  0  0  0  0
 16 18  1  0  0  0  0
 16 45  1  0  0  0  0
 16 46  1  0  0  0  0
 17 19  1  0  0  0  0
 17 47  1  0  0  0  0
 17 48  1  0  0  0  0
 18 20  1  0  0  0  0
 18 49  1  0  0  0  0
 18 50  1  0  0  0  0
 19 21  1  0  0  0  0
 19 51  1  0  0  0  0
 19 52  1  0  0  0  0
 20 53  1  0  0  0  0
 20 54  1  0  0  0  0
 20 55  1  0  0  0  0
 22 23  1  0  0  0  0
 22 24  1  0  0  0  0
 22 57  1  0  0  0  0
 23 58  1  0  0  0  0
 23 59  1  0  0  0  0
 24 60  1  0  0  0  0
 24 61  1  0  0  0  0
M  END
> <PUBCHEM_COMPOUND_CID>
19596767

> <PUBCHEM_COMPOUND_CANONICALIZED>
1

> <PUBCHEM_CACTVS_COMPLEXITY>
203

> <PUBCHEM_CACTVS_HBOND_ACCEPTOR>
5

> <PUBCHEM_CACTVS_HBOND_DONOR>
4

> <PUBCHEM_CACTVS_ROTATABLE_BOND>
16

> <PUBCHEM_CACTVS_SUBSKEYS>
AAADcfB4OAAAAAAAAAAAAAAAAAAAAAAAAAAAAAAAAAAAAAAAAAAAGgAACAAACBSggAICCAAAAgAIAACQCAAAAAAAAAAAAAEAAAABEBIAAAAAQAAFAAABAAGIyKCAAAAAAAAAAAAAAAAAAAAAAAAAAAAAAA==

> <PUBCHEM_IUPAC_OPENEYE_NAME>
glycerol;palmitic acid

> <PUBCHEM_IUPAC_CAS_NAME>
hexadecanoic acid;propane-1,2,3-triol

> <PUBCHEM_IUPAC_NAME_MARKUP>
hexadecanoic acid;propane-1,2,3-triol

> <PUBCHEM_IUPAC_NAME>
hexadecanoic acid;propane-1,2,3-triol

> <PUBCHEM_IUPAC_SYSTEMATIC_NAME>
hexadecanoic acid;propane-1,2,3-triol

> <PUBCHEM_IUPAC_TRADITIONAL_NAME>
glycerol;palmitic acid

> <PUBCHEM_IUPAC_INCHI>
InChI=1S/C16H32O2.C3H8O3/c1-2-3-4-5-6-7-8-9-10-11-12-13-14-15-16(17)18;4-1-3(6)2-5/h2-15H2,1H3,(H,17,18);3-6H,1-2H2

> <PUBCHEM_IUPAC_INCHIKEY>
CGBXSWXZXBQCMR-UHFFFAOYSA-N

> <PUBCHEM_EXACT_MASS>
348.28757437

> <PUBCHEM_MOLECULAR_FORMULA>
C19H40O5

> <PUBCHEM_MOLECULAR_WEIGHT>
348.5

> <PUBCHEM_SMILES>
CCCCCCCCCCCCCCCC(=O)O.C(C(CO)O)O

> <PUBCHEM_OPENEYE_CAN_SMILES>
CCCCCCCCCCCCCCCC(=O)O.C(C(CO)O)O

> <PUBCHEM_OPENEYE_ISO_SMILES>
CCCCCCCCCCCCCCCC(=O)O.C(C(CO)O)O

> <PUBCHEM_CACTVS_TPSA>
98

> <PUBCHEM_MONOISOTOPIC_WEIGHT>
348.28757437

> <PUBCHEM_TOTAL_CHARGE>
0

> <PUBCHEM_HEAVY_ATOM_COUNT>
24

> <PUBCHEM_ATOM_DEF_STEREO_COUNT>
0

> <PUBCHEM_ATOM_UDEF_STEREO_COUNT>
0

> <PUBCHEM_BOND_DEF_STEREO_COUNT>
0

> <PUBCHEM_BOND_UDEF_STEREO_COUNT>
0

> <PUBCHEM_ISOTOPIC_ATOM_COUNT>
0

> <PUBCHEM_COMPONENT_COUNT>
2

> <PUBCHEM_CACTVS_TAUTO_COUNT>
-1

> <PUBCHEM_COORDINATE_TYPE>
1
5
255

$$$$
