19996246
  -OEChem-04042512132D

100102  0     1  0  0  0  0  0999 V2000
    5.9803   -0.4851    0.0000 P   0  0  0  0  0  0  0  0  0  0  0  0
    5.0564   -0.8677    0.0000 O   0  0  0  0  0  0  0  0  0  0  0  0
    6.9042   -0.8677    0.0000 O   0  0  0  0  0  0  0  0  0  0  0  0
    5.9803    0.5149    0.0000 O   0  0  0  0  0  0  0  0  0  0  0  0
    3.2713   -0.7115    0.0000 C   0  0  0  0  0  0  0  0  0  0  0  0
    8.6893   -0.7115    0.0000 C   0  0  0  0  0  0  0  0  0  0  0  0
    3.6432   -1.6398    0.0000 C   0  0  0  0  0  0  0  0  0  0  0  0
    8.3174   -1.6398    0.0000 C   0  0  0  0  0  0  0  0  0  0  0  0
    2.7957   -4.2192    0.0000 C   0  0  0  0  0  0  0  0  0  0  0  0
    9.1649   -4.2192    0.0000 C   0  0  0  0  0  0  0  0  0  0  0  0
    5.0564   -2.7155    0.0000 C   0  0  0  0  0  0  0  0  0  0  0  0
    6.9042   -2.7155    0.0000 C   0  0  0  0  0  0  0  0  0  0  0  0
    3.4014   -3.4236    0.0000 C   0  0  0  0  0  0  0  0  0  0  0  0
    8.5592   -3.4236    0.0000 C   0  0  0  0  0  0  0  0  0  0  0  0
    5.9803   -3.0982    0.0000 C   0  0  0  0  0  0  0  0  0  0  0  0
    4.6737   -1.7916    0.0000 C   0  0  0  0  0  0  0  0  0  0  0  0
    7.2869   -1.7916    0.0000 C   0  0  0  0  0  0  0  0  0  0  0  0
    3.0028   -2.4612    0.0000 C   0  0  0  0  0  0  0  0  0  0  0  0
    8.9578   -2.4612    0.0000 C   0  0  0  0  0  0  0  0  0  0  0  0
    4.4351   -3.5516    0.0000 C   0  0  0  0  0  0  0  0  0  0  0  0
    7.5255   -3.5516    0.0000 C   0  0  0  0  0  0  0  0  0  0  0  0
    2.8993    0.2167    0.0000 C   0  0  0  0  0  0  0  0  0  0  0  0
    2.3430   -1.0835    0.0000 C   0  0  0  0  0  0  0  0  0  0  0  0
    4.1995   -0.3395    0.0000 C   0  0  0  0  0  0  0  0  0  0  0  0
    9.0613    0.2167    0.0000 C   0  0  0  0  0  0  0  0  0  0  0  0
    9.6176   -1.0835    0.0000 C   0  0  0  0  0  0  0  0  0  0  0  0
    7.7611   -0.3395    0.0000 C   0  0  0  0  0  0  0  0  0  0  0  0
    2.1900   -5.0150    0.0000 C   0  0  0  0  0  0  0  0  0  0  0  0
    2.0000   -3.6136    0.0000 C   0  0  0  0  0  0  0  0  0  0  0  0
    3.5914   -4.8250    0.0000 C   0  0  0  0  0  0  0  0  0  0  0  0
    9.7706   -5.0150    0.0000 C   0  0  0  0  0  0  0  0  0  0  0  0
    9.9606   -3.6136    0.0000 C   0  0  0  0  0  0  0  0  0  0  0  0
    8.3692   -4.8250    0.0000 C   0  0  0  0  0  0  0  0  0  0  0  0
    6.8463    2.0149    0.0000 C   0  0  3  0  0  0  0  0  0  0  0  0
    7.7124    2.5149    0.0000 C   0  0  0  0  0  0  0  0  0  0  0  0
    6.8463    1.0150    0.0000 C   0  0  0  0  0  0  0  0  0  0  0  0
    5.9803    2.5149    0.0000 C   0  0  0  0  0  0  0  0  0  0  0  0
    7.7124    3.5150    0.0000 C   0  0  0  0  0  0  0  0  0  0  0  0
    8.5784    4.0150    0.0000 C   0  0  0  0  0  0  0  0  0  0  0  0
    5.9803    3.5150    0.0000 C   0  0  0  0  0  0  0  0  0  0  0  0
    8.5784    5.0150    0.0000 C   0  0  0  0  0  0  0  0  0  0  0  0
    5.6029   -3.5901    0.0000 H   0  0  0  0  0  0  0  0  0  0  0  0
    6.3577   -3.5901    0.0000 H   0  0  0  0  0  0  0  0  0  0  0  0
    2.3884   -2.3779    0.0000 H   0  0  0  0  0  0  0  0  0  0  0  0
    9.5722   -2.3779    0.0000 H   0  0  0  0  0  0  0  0  0  0  0  0
    4.6790   -4.1216    0.0000 H   0  0  0  0  0  0  0  0  0  0  0  0
    7.2816   -4.1216    0.0000 H   0  0  0  0  0  0  0  0  0  0  0  0
    3.4748    0.4474    0.0000 H   0  0  0  0  0  0  0  0  0  0  0  0
    2.6687    0.7922    0.0000 H   0  0  0  0  0  0  0  0  0  0  0  0
    2.3238   -0.0139    0.0000 H   0  0  0  0  0  0  0  0  0  0  0  0
    2.1124   -0.5080    0.0000 H   0  0  0  0  0  0  0  0  0  0  0  0
    1.7675   -1.3141    0.0000 H   0  0  0  0  0  0  0  0  0  0  0  0
    2.5736   -1.6590    0.0000 H   0  0  0  0  0  0  0  0  0  0  0  0
    4.4301   -0.9150    0.0000 H   0  0  0  0  0  0  0  0  0  0  0  0
    4.7750   -0.1089    0.0000 H   0  0  0  0  0  0  0  0  0  0  0  0
    3.9689    0.2360    0.0000 H   0  0  0  0  0  0  0  0  0  0  0  0
    9.6368   -0.0139    0.0000 H   0  0  0  0  0  0  0  0  0  0  0  0
    9.2919    0.7922    0.0000 H   0  0  0  0  0  0  0  0  0  0  0  0
    8.4858    0.4474    0.0000 H   0  0  0  0  0  0  0  0  0  0  0  0
    9.3870   -1.6590    0.0000 H   0  0  0  0  0  0  0  0  0  0  0  0
   10.1931   -1.3141    0.0000 H   0  0  0  0  0  0  0  0  0  0  0  0
    9.8482   -0.5080    0.0000 H   0  0  0  0  0  0  0  0  0  0  0  0
    7.9917    0.2360    0.0000 H   0  0  0  0  0  0  0  0  0  0  0  0
    7.1856   -0.1089    0.0000 H   0  0  0  0  0  0  0  0  0  0  0  0
    7.5305   -0.9150    0.0000 H   0  0  0  0  0  0  0  0  0  0  0  0
    1.6967   -4.6394    0.0000 H   0  0  0  0  0  0  0  0  0  0  0  0
    1.8145   -5.5083    0.0000 H   0  0  0  0  0  0  0  0  0  0  0  0
    2.6833   -5.3905    0.0000 H   0  0  0  0  0  0  0  0  0  0  0  0
    2.3755   -3.1202    0.0000 H   0  0  0  0  0  0  0  0  0  0  0  0
    1.5067   -3.2380    0.0000 H   0  0  0  0  0  0  0  0  0  0  0  0
    1.6245   -4.1069    0.0000 H   0  0  0  0  0  0  0  0  0  0  0  0
    3.2158   -5.3183    0.0000 H   0  0  0  0  0  0  0  0  0  0  0  0
    4.0847   -5.2005    0.0000 H   0  0  0  0  0  0  0  0  0  0  0  0
    3.9669   -4.3316    0.0000 H   0  0  0  0  0  0  0  0  0  0  0  0
    9.2773   -5.3905    0.0000 H   0  0  0  0  0  0  0  0  0  0  0  0
   10.1461   -5.5083    0.0000 H   0  0  0  0  0  0  0  0  0  0  0  0
   10.2639   -4.6394    0.0000 H   0  0  0  0  0  0  0  0  0  0  0  0
   10.3361   -4.1069    0.0000 H   0  0  0  0  0  0  0  0  0  0  0  0
   10.4539   -3.2380    0.0000 H   0  0  0  0  0  0  0  0  0  0  0  0
    9.5851   -3.1202    0.0000 H   0  0  0  0  0  0  0  0  0  0  0  0
    7.9937   -4.3316    0.0000 H   0  0  0  0  0  0  0  0  0  0  0  0
    7.8759   -5.2005    0.0000 H   0  0  0  0  0  0  0  0  0  0  0  0
    8.7447   -5.3183    0.0000 H   0  0  0  0  0  0  0  0  0  0  0  0
    6.8463    2.6350    0.0000 H   0  0  0  0  0  0  0  0  0  0  0  0
    7.9244    1.9323    0.0000 H   0  0  0  0  0  0  0  0  0  0  0  0
    8.3229    2.6226    0.0000 H   0  0  0  0  0  0  0  0  0  0  0  0
    7.0584    0.4323    0.0000 H   0  0  0  0  0  0  0  0  0  0  0  0
    7.4569    1.1226    0.0000 H   0  0  0  0  0  0  0  0  0  0  0  0
    5.3697    2.6226    0.0000 H   0  0  0  0  0  0  0  0  0  0  0  0
    5.7682    1.9323    0.0000 H   0  0  0  0  0  0  0  0  0  0  0  0
    7.5003    4.0976    0.0000 H   0  0  0  0  0  0  0  0  0  0  0  0
    7.1018    3.4073    0.0000 H   0  0  0  0  0  0  0  0  0  0  0  0
    8.7904    3.4323    0.0000 H   0  0  0  0  0  0  0  0  0  0  0  0
    9.1890    4.1226    0.0000 H   0  0  0  0  0  0  0  0  0  0  0  0
    6.6003    3.5150    0.0000 H   0  0  0  0  0  0  0  0  0  0  0  0
    5.9803    4.1350    0.0000 H   0  0  0  0  0  0  0  0  0  0  0  0
    5.3603    3.5150    0.0000 H   0  0  0  0  0  0  0  0  0  0  0  0
    9.1984    5.0150    0.0000 H   0  0  0  0  0  0  0  0  0  0  0  0
    8.5784    5.6350    0.0000 H   0  0  0  0  0  0  0  0  0  0  0  0
    7.9584    5.0150    0.0000 H   0  0  0  0  0  0  0  0  0  0  0  0
  1  2  1  0  0  0  0
  1  3  1  0  0  0  0
  1  4  1  0  0  0  0
  2 16  1  0  0  0  0
  3 17  1  0  0  0  0
  4 36  1  0  0  0  0
  5  7  1  0  0  0  0
  5 22  1  0  0  0  0
  5 23  1  0  0  0  0
  5 24  1  0  0  0  0
  6  8  1  0  0  0  0
  6 25  1  0  0  0  0
  6 26  1  0  0  0  0
  6 27  1  0  0  0  0
  7 16  1  0  0  0  0
  7 18  2  0  0  0  0
  8 17  1  0  0  0  0
  8 19  2  0  0  0  0
  9 13  1  0  0  0  0
  9 28  1  0  0  0  0
  9 29  1  0  0  0  0
  9 30  1  0  0  0  0
 10 14  1  0  0  0  0
 10 31  1  0  0  0  0
 10 32  1  0  0  0  0
 10 33  1  0  0  0  0
 11 15  1  0  0  0  0
 11 16  2  0  0  0  0
 11 20  1  0  0  0  0
 12 15  1  0  0  0  0
 12 17  2  0  0  0  0
 12 21  1  0  0  0  0
 13 18  1  0  0  0  0
 13 20  2  0  0  0  0
 14 19  1  0  0  0  0
 14 21  2  0  0  0  0
 15 42  1  0  0  0  0
 15 43  1  0  0  0  0
 18 44  1  0  0  0  0
 19 45  1  0  0  0  0
 20 46  1  0  0  0  0
 21 47  1  0  0  0  0
 22 48  1  0  0  0  0
 22 49  1  0  0  0  0
 22 50  1  0  0  0  0
 23 51  1  0  0  0  0
 23 52  1  0  0  0  0
 23 53  1  0  0  0  0
 24 54  1  0  0  0  0
 24 55  1  0  0  0  0
 24 56  1  0  0  0  0
 25 57  1  0  0  0  0
 25 58  1  0  0  0  0
 25 59  1  0  0  0  0
 26 60  1  0  0  0  0
 26 61  1  0  0  0  0
 26 62  1  0  0  0  0
 27 63  1  0  0  0  0
 27 64  1  0  0  0  0
 27 65  1  0  0  0  0
 28 66  1  0  0  0  0
 28 67  1  0  0  0  0
 28 68  1  0  0  0  0
 29 69  1  0  0  0  0
 29 70  1  0  0  0  0
 29 71  1  0  0  0  0
 30 72  1  0  0  0  0
 30 73  1  0  0  0  0
 30 74  1  0  0  0  0
 31 75  1  0  0  0  0
 31 76  1  0  0  0  0
 31 77  1  0  0  0  0
 32 78  1  0  0  0  0
 32 79  1  0  0  0  0
 32 80  1  0  0  0  0
 33 81  1  0  0  0  0
 33 82  1  0  0  0  0
 33 83  1  0  0  0  0
 34 35  1  0  0  0  0
 34 36  1  0  0  0  0
 34 37  1  0  0  0  0
 34 84  1  0  0  0  0
 35 38  1  0  0  0  0
 35 85  1  0  0  0  0
 35 86  1  0  0  0  0
 36 87  1  0  0  0  0
 36 88  1  0  0  0  0
 37 40  1  0  0  0  0
 37 89  1  0  0  0  0
 37 90  1  0  0  0  0
 38 39  1  0  0  0  0
 38 91  1  0  0  0  0
 38 92  1  0  0  0  0
 39 41  1  0  0  0  0
 39 93  1  0  0  0  0
 39 94  1  0  0  0  0
 40 95  1  0  0  0  0
 40 96  1  0  0  0  0
 40 97  1  0  0  0  0
 41 98  1  0  0  0  0
 41 99  1  0  0  0  0
 41100  1  0  0  0  0
M  END
> <PUBCHEM_COMPOUND_CID>
19996246

> <PUBCHEM_COMPOUND_CANONICALIZED>
1

> <PUBCHEM_CACTVS_COMPLEXITY>
741

> <PUBCHEM_CACTVS_HBOND_ACCEPTOR>
3

> <PUBCHEM_CACTVS_HBOND_DONOR>
0

> <PUBCHEM_CACTVS_ROTATABLE_BOND>
11

> <PUBCHEM_CACTVS_SUBSKEYS>
AAADcfB8MAIAAAAAAAAAAAAAAAAAAAAAAAAwYAAAAAASAAABQAAAGgAAACAADwSgmAIyBoAAARCAAiBCAAACAAAgIAAAiAAECIgIJiKAERKAMAAkwBEIiAeA4PQPoAACAAAIAABAAAQAABAAAAAAAAAAAA==

> <PUBCHEM_IUPAC_OPENEYE_NAME>
1,3,7,9-tetratert-butyl-11-(2-ethylhexoxy)-5H-benzo[d][1,3,2]benzodioxaphosphocine

> <PUBCHEM_IUPAC_CAS_NAME>
1,3,7,9-tetratert-butyl-11-(2-ethylhexoxy)-5H-benzo[d][1,3,2]benzodioxaphosphocin

> <PUBCHEM_IUPAC_NAME_MARKUP>
1,3,7,9-tetra<I>tert</I>-butyl-11-(2-ethylhexoxy)-5<I>H</I>-benzo[d][1,3,2]benzodioxaphosphocine

> <PUBCHEM_IUPAC_NAME>
1,3,7,9-tetratert-butyl-11-(2-ethylhexoxy)-5H-benzo[d][1,3,2]benzodioxaphosphocine

> <PUBCHEM_IUPAC_SYSTEMATIC_NAME>
1,3,7,9-tetratert-butyl-11-(2-ethylhexoxy)-5H-benzo[d][1,3,2]benzodioxaphosphocine

> <PUBCHEM_IUPAC_TRADITIONAL_NAME>
1,3,7,9-tetratert-butyl-11-(2-ethylhexoxy)-5H-benzo[d][1,3,2]benzodioxaphosphocin

> <PUBCHEM_IUPAC_INCHI>
InChI=1S/C37H59O3P/c1-15-17-18-25(16-2)24-38-41-39-32-26(20-28(34(3,4)5)22-30(32)36(9,10)11)19-27-21-29(35(6,7)8)23-31(33(27)40-41)37(12,13)14/h20-23,25H,15-19,24H2,1-14H3

> <PUBCHEM_IUPAC_INCHIKEY>
LOMJGCFEVIUZMW-UHFFFAOYSA-N

> <PUBCHEM_XLOGP3_AA>
13.5

> <PUBCHEM_EXACT_MASS>
582.42018274

> <PUBCHEM_MOLECULAR_FORMULA>
C37H59O3P

> <PUBCHEM_MOLECULAR_WEIGHT>
582.8

> <PUBCHEM_SMILES>
CCCCC(CC)COP1OC2=C(CC3=C(O1)C(=CC(=C3)C(C)(C)C)C(C)(C)C)C=C(C=C2C(C)(C)C)C(C)(C)C

> <PUBCHEM_OPENEYE_CAN_SMILES>
CCCCC(CC)COP1OC2=C(CC3=C(O1)C(=CC(=C3)C(C)(C)C)C(C)(C)C)C=C(C=C2C(C)(C)C)C(C)(C)C

> <PUBCHEM_OPENEYE_ISO_SMILES>
CCCCC(CC)COP1OC2=C(CC3=C(O1)C(=CC(=C3)C(C)(C)C)C(C)(C)C)C=C(C=C2C(C)(C)C)C(C)(C)C

> <PUBCHEM_CACTVS_TPSA>
27.7

> <PUBCHEM_MONOISOTOPIC_WEIGHT>
582.42018274

> <PUBCHEM_TOTAL_CHARGE>
0

> <PUBCHEM_HEAVY_ATOM_COUNT>
41

> <PUBCHEM_ATOM_DEF_STEREO_COUNT>
0

> <PUBCHEM_ATOM_UDEF_STEREO_COUNT>
1

> <PUBCHEM_BOND_DEF_STEREO_COUNT>
0

> <PUBCHEM_BOND_UDEF_STEREO_COUNT>
0

> <PUBCHEM_ISOTOPIC_ATOM_COUNT>
0

> <PUBCHEM_COMPONENT_COUNT>
1

> <PUBCHEM_CACTVS_TAUTO_COUNT>
-1

> <PUBCHEM_COORDINATE_TYPE>
1
5
255

> <PUBCHEM_BONDANNOTATIONS>
11  16  8
11  20  8
12  17  8
12  21  8
13  18  8
13  20  8
14  19  8
14  21  8
34  37  3
7  16  8
7  18  8
8  17  8
8  19  8

$$$$
