20478723
  -OEChem-04042505462D

 61 61  0     0  0  0  0  0  0999 V2000
    3.7320   -3.7500    0.0000 S   0  0  0  0  0  0  0  0  0  0  0  0
    2.8660   -4.2500    0.0000 O   0  0  0  0  0  0  0  0  0  0  0  0
    3.2320   -2.8840    0.0000 O   0  0  0  0  0  0  0  0  0  0  0  0
    4.2320   -4.6160    0.0000 O   0  0  0  0  0  0  0  0  0  0  0  0
    7.1962    1.2500    0.0000 C   0  0  0  0  0  0  0  0  0  0  0  0
    7.1962    2.2500    0.0000 C   0  0  0  0  0  0  0  0  0  0  0  0
    6.3301    0.7500    0.0000 C   0  0  0  0  0  0  0  0  0  0  0  0
    8.0622    2.7500    0.0000 C   0  0  0  0  0  0  0  0  0  0  0  0
    6.3301   -0.2500    0.0000 C   0  0  0  0  0  0  0  0  0  0  0  0
    8.0622    3.7500    0.0000 C   0  0  0  0  0  0  0  0  0  0  0  0
    5.4641   -0.7500    0.0000 C   0  0  0  0  0  0  0  0  0  0  0  0
    8.9282    4.2500    0.0000 C   0  0  0  0  0  0  0  0  0  0  0  0
    5.4641   -1.7500    0.0000 C   0  0  0  0  0  0  0  0  0  0  0  0
    8.9282    5.2500    0.0000 C   0  0  0  0  0  0  0  0  0  0  0  0
    4.5981   -2.2500    0.0000 C   0  0  0  0  0  0  0  0  0  0  0  0
    9.7942    5.7500    0.0000 C   0  0  0  0  0  0  0  0  0  0  0  0
    4.5981   -3.2500    0.0000 C   0  0  0  0  0  0  0  0  0  0  0  0
    9.7942    6.7500    0.0000 C   0  0  0  0  0  0  0  0  0  0  0  0
   10.6603    7.2500    0.0000 C   0  0  0  0  0  0  0  0  0  0  0  0
    2.8660   -5.2500    0.0000 C   0  0  0  0  0  0  0  0  0  0  0  0
    3.7320   -5.7500    0.0000 C   0  0  0  0  0  0  0  0  0  0  0  0
    2.0000   -5.7500    0.0000 C   0  0  0  0  0  0  0  0  0  0  0  0
    3.7320   -6.7500    0.0000 C   0  0  0  0  0  0  0  0  0  0  0  0
    2.0000   -6.7500    0.0000 C   0  0  0  0  0  0  0  0  0  0  0  0
    2.8660   -7.2500    0.0000 C   0  0  0  0  0  0  0  0  0  0  0  0
    7.4082    0.6674    0.0000 H   0  0  0  0  0  0  0  0  0  0  0  0
    7.8067    1.3577    0.0000 H   0  0  0  0  0  0  0  0  0  0  0  0
    6.9841    2.8326    0.0000 H   0  0  0  0  0  0  0  0  0  0  0  0
    6.5856    2.1423    0.0000 H   0  0  0  0  0  0  0  0  0  0  0  0
    6.1181    1.3326    0.0000 H   0  0  0  0  0  0  0  0  0  0  0  0
    5.7196    0.6423    0.0000 H   0  0  0  0  0  0  0  0  0  0  0  0
    8.2742    2.1674    0.0000 H   0  0  0  0  0  0  0  0  0  0  0  0
    8.6728    2.8577    0.0000 H   0  0  0  0  0  0  0  0  0  0  0  0
    6.5422   -0.8326    0.0000 H   0  0  0  0  0  0  0  0  0  0  0  0
    6.9407   -0.1423    0.0000 H   0  0  0  0  0  0  0  0  0  0  0  0
    7.8501    4.3326    0.0000 H   0  0  0  0  0  0  0  0  0  0  0  0
    7.4516    3.6423    0.0000 H   0  0  0  0  0  0  0  0  0  0  0  0
    5.2520   -0.1674    0.0000 H   0  0  0  0  0  0  0  0  0  0  0  0
    4.8535   -0.8577    0.0000 H   0  0  0  0  0  0  0  0  0  0  0  0
    9.1403    3.6674    0.0000 H   0  0  0  0  0  0  0  0  0  0  0  0
    9.5388    4.3577    0.0000 H   0  0  0  0  0  0  0  0  0  0  0  0
    5.6762   -2.3326    0.0000 H   0  0  0  0  0  0  0  0  0  0  0  0
    6.0747   -1.6423    0.0000 H   0  0  0  0  0  0  0  0  0  0  0  0
    8.7162    5.8326    0.0000 H   0  0  0  0  0  0  0  0  0  0  0  0
    8.3176    5.1423    0.0000 H   0  0  0  0  0  0  0  0  0  0  0  0
    4.3860   -1.6674    0.0000 H   0  0  0  0  0  0  0  0  0  0  0  0
    3.9875   -2.3577    0.0000 H   0  0  0  0  0  0  0  0  0  0  0  0
   10.0063    5.1674    0.0000 H   0  0  0  0  0  0  0  0  0  0  0  0
   10.4048    5.8577    0.0000 H   0  0  0  0  0  0  0  0  0  0  0  0
    4.8101   -3.8326    0.0000 H   0  0  0  0  0  0  0  0  0  0  0  0
    5.2087   -3.1423    0.0000 H   0  0  0  0  0  0  0  0  0  0  0  0
    9.5822    7.3326    0.0000 H   0  0  0  0  0  0  0  0  0  0  0  0
    9.1836    6.6423    0.0000 H   0  0  0  0  0  0  0  0  0  0  0  0
   10.9703    6.7131    0.0000 H   0  0  0  0  0  0  0  0  0  0  0  0
   11.1972    7.5600    0.0000 H   0  0  0  0  0  0  0  0  0  0  0  0
   10.3503    7.7869    0.0000 H   0  0  0  0  0  0  0  0  0  0  0  0
    4.2690   -5.4400    0.0000 H   0  0  0  0  0  0  0  0  0  0  0  0
    1.4631   -5.4400    0.0000 H   0  0  0  0  0  0  0  0  0  0  0  0
    4.2690   -7.0600    0.0000 H   0  0  0  0  0  0  0  0  0  0  0  0
    1.4631   -7.0600    0.0000 H   0  0  0  0  0  0  0  0  0  0  0  0
    2.8660   -7.8700    0.0000 H   0  0  0  0  0  0  0  0  0  0  0  0
  1  2  1  0  0  0  0
  1  3  2  0  0  0  0
  1  4  2  0  0  0  0
  1 17  1  0  0  0  0
  2 20  1  0  0  0  0
  5  6  1  0  0  0  0
  5  7  1  0  0  0  0
  5 26  1  0  0  0  0
  5 27  1  0  0  0  0
  6  8  1  0  0  0  0
  6 28  1  0  0  0  0
  6 29  1  0  0  0  0
  7  9  1  0  0  0  0
  7 30  1  0  0  0  0
  7 31  1  0  0  0  0
  8 10  1  0  0  0  0
  8 32  1  0  0  0  0
  8 33  1  0  0  0  0
  9 11  1  0  0  0  0
  9 34  1  0  0  0  0
  9 35  1  0  0  0  0
 10 12  1  0  0  0  0
 10 36  1  0  0  0  0
 10 37  1  0  0  0  0
 11 13  1  0  0  0  0
 11 38  1  0  0  0  0
 11 39  1  0  0  0  0
 12 14  1  0  0  0  0
 12 40  1  0  0  0  0
 12 41  1  0  0  0  0
 13 15  1  0  0  0  0
 13 42  1  0  0  0  0
 13 43  1  0  0  0  0
 14 16  1  0  0  0  0
 14 44  1  0  0  0  0
 14 45  1  0  0  0  0
 15 17  1  0  0  0  0
 15 46  1  0  0  0  0
 15 47  1  0  0  0  0
 16 18  1  0  0  0  0
 16 48  1  0  0  0  0
 16 49  1  0  0  0  0
 17 50  1  0  0  0  0
 17 51  1  0  0  0  0
 18 19  1  0  0  0  0
 18 52  1  0  0  0  0
 18 53  1  0  0  0  0
 19 54  1  0  0  0  0
 19 55  1  0  0  0  0
 19 56  1  0  0  0  0
 20 21  2  0  0  0  0
 20 22  1  0  0  0  0
 21 23  1  0  0  0  0
 21 57  1  0  0  0  0
 22 24  2  0  0  0  0
 22 58  1  0  0  0  0
 23 25  2  0  0  0  0
 23 59  1  0  0  0  0
 24 25  1  0  0  0  0
 24 60  1  0  0  0  0
 25 61  1  0  0  0  0
M  END
> <PUBCHEM_COMPOUND_CID>
20478723

> <PUBCHEM_COMPOUND_CANONICALIZED>
1

> <PUBCHEM_CACTVS_COMPLEXITY>
380

> <PUBCHEM_CACTVS_HBOND_ACCEPTOR>
3

> <PUBCHEM_CACTVS_HBOND_DONOR>
0

> <PUBCHEM_CACTVS_ROTATABLE_BOND>
16

> <PUBCHEM_CACTVS_SUBSKEYS>
AAADcfB4MABAAAAAAAAAAAAAAAAAAAAAAAAwAAAAAAAAAAABAAAAGgQAAAAACASE0ACyBoAAAAKAACBCAHBCAAAgIAAIiAAGCIgIJiKAERKAMAAkwBEIiAeAwIAAAAAAAAAAAAAAAAAAAAAAAAAAAAAAAA==

> <PUBCHEM_IUPAC_OPENEYE_NAME>
phenyl pentadecane-1-sulfonate

> <PUBCHEM_IUPAC_CAS_NAME>
1-pentadecanesulfonic acid

> <PUBCHEM_IUPAC_NAME_MARKUP>
phenyl pentadecane-1-sulfonate

> <PUBCHEM_IUPAC_NAME>
phenyl pentadecane-1-sulfonate

> <PUBCHEM_IUPAC_SYSTEMATIC_NAME>
phenyl pentadecane-1-sulfonate

> <PUBCHEM_IUPAC_TRADITIONAL_NAME>
pentadecane-1-sulfonic acid phenyl ester

> <PUBCHEM_IUPAC_INCHI>
InChI=1S/C21H36O3S/c1-2-3-4-5-6-7-8-9-10-11-12-13-17-20-25(22,23)24-21-18-15-14-16-19-21/h14-16,18-19H,2-13,17,20H2,1H3

> <PUBCHEM_IUPAC_INCHIKEY>
UDKSLGIUCGAZTK-UHFFFAOYSA-N

> <PUBCHEM_XLOGP3_AA>
8.7

> <PUBCHEM_EXACT_MASS>
368.23851618

> <PUBCHEM_MOLECULAR_FORMULA>
C21H36O3S

> <PUBCHEM_MOLECULAR_WEIGHT>
368.6

> <PUBCHEM_SMILES>
CCCCCCCCCCCCCCCS(=O)(=O)OC1=CC=CC=C1

> <PUBCHEM_OPENEYE_CAN_SMILES>
CCCCCCCCCCCCCCCS(=O)(=O)OC1=CC=CC=C1

> <PUBCHEM_OPENEYE_ISO_SMILES>
CCCCCCCCCCCCCCCS(=O)(=O)OC1=CC=CC=C1

> <PUBCHEM_CACTVS_TPSA>
51.8

> <PUBCHEM_MONOISOTOPIC_WEIGHT>
368.23851618

> <PUBCHEM_TOTAL_CHARGE>
0

> <PUBCHEM_HEAVY_ATOM_COUNT>
25

> <PUBCHEM_ATOM_DEF_STEREO_COUNT>
0

> <PUBCHEM_ATOM_UDEF_STEREO_COUNT>
0

> <PUBCHEM_BOND_DEF_STEREO_COUNT>
0

> <PUBCHEM_BOND_UDEF_STEREO_COUNT>
0

> <PUBCHEM_ISOTOPIC_ATOM_COUNT>
0

> <PUBCHEM_COMPONENT_COUNT>
1

> <PUBCHEM_CACTVS_TAUTO_COUNT>
-1

> <PUBCHEM_COORDINATE_TYPE>
1
5
255

> <PUBCHEM_BONDANNOTATIONS>
20  21  8
20  22  8
21  23  8
22  24  8
23  25  8
24  25  8

$$$$
