20849296
  -OEChem-04042513062D

 54 53  0     0  0  0  0  0  0999 V2000
    3.4030   -0.2685    0.0000 P   0  0  0  0  0  0  0  0  0  0  0  0
    6.8671   -0.2685    0.0000 O   0  0  0  0  0  0  0  0  0  0  0  0
    4.2690    0.2315    0.0000 O   0  0  0  0  0  0  0  0  0  0  0  0
    2.5369   -0.7685    0.0000 O   0  0  0  0  0  0  0  0  0  0  0  0
    2.9030    0.5976    0.0000 O   0  0  0  0  0  0  0  0  0  0  0  0
    3.9030   -1.1345    0.0000 O   0  0  0  0  0  0  0  0  0  0  0  0
   12.9292    0.2315    0.0000 C   0  0  0  0  0  0  0  0  0  0  0  0
   12.0632   -0.2685    0.0000 C   0  0  0  0  0  0  0  0  0  0  0  0
   13.7953   -0.2685    0.0000 C   0  0  0  0  0  0  0  0  0  0  0  0
   11.1972    0.2315    0.0000 C   0  0  0  0  0  0  0  0  0  0  0  0
   14.6613    0.2315    0.0000 C   0  0  0  0  0  0  0  0  0  0  0  0
   10.3312   -0.2685    0.0000 C   0  0  0  0  0  0  0  0  0  0  0  0
   15.5273   -0.2685    0.0000 C   0  0  0  0  0  0  0  0  0  0  0  0
    9.4651    0.2315    0.0000 C   0  0  0  0  0  0  0  0  0  0  0  0
   16.3933    0.2315    0.0000 C   0  0  0  0  0  0  0  0  0  0  0  0
    8.5991   -0.2685    0.0000 C   0  0  0  0  0  0  0  0  0  0  0  0
   17.2594   -0.2685    0.0000 C   0  0  0  0  0  0  0  0  0  0  0  0
    7.7331    0.2315    0.0000 C   0  0  0  0  0  0  0  0  0  0  0  0
   18.1254    0.2315    0.0000 C   0  0  0  0  0  0  0  0  0  0  0  0
    6.0010    0.2315    0.0000 C   0  0  0  0  0  0  0  0  0  0  0  0
    5.1350   -0.2685    0.0000 C   0  0  0  0  0  0  0  0  0  0  0  0
   13.3278    0.7065    0.0000 H   0  0  0  0  0  0  0  0  0  0  0  0
   12.5307    0.7065    0.0000 H   0  0  0  0  0  0  0  0  0  0  0  0
   11.6647   -0.7434    0.0000 H   0  0  0  0  0  0  0  0  0  0  0  0
   12.4617   -0.7434    0.0000 H   0  0  0  0  0  0  0  0  0  0  0  0
   13.3967   -0.7434    0.0000 H   0  0  0  0  0  0  0  0  0  0  0  0
   14.1938   -0.7434    0.0000 H   0  0  0  0  0  0  0  0  0  0  0  0
   11.5957    0.7065    0.0000 H   0  0  0  0  0  0  0  0  0  0  0  0
   10.7987    0.7065    0.0000 H   0  0  0  0  0  0  0  0  0  0  0  0
   15.0598    0.7065    0.0000 H   0  0  0  0  0  0  0  0  0  0  0  0
   14.2628    0.7065    0.0000 H   0  0  0  0  0  0  0  0  0  0  0  0
    9.9326   -0.7434    0.0000 H   0  0  0  0  0  0  0  0  0  0  0  0
   10.7297   -0.7434    0.0000 H   0  0  0  0  0  0  0  0  0  0  0  0
   15.1288   -0.7434    0.0000 H   0  0  0  0  0  0  0  0  0  0  0  0
   15.9258   -0.7434    0.0000 H   0  0  0  0  0  0  0  0  0  0  0  0
    9.8637    0.7065    0.0000 H   0  0  0  0  0  0  0  0  0  0  0  0
    9.0666    0.7065    0.0000 H   0  0  0  0  0  0  0  0  0  0  0  0
   16.7919    0.7065    0.0000 H   0  0  0  0  0  0  0  0  0  0  0  0
   15.9948    0.7065    0.0000 H   0  0  0  0  0  0  0  0  0  0  0  0
    8.2006   -0.7434    0.0000 H   0  0  0  0  0  0  0  0  0  0  0  0
    8.9976   -0.7434    0.0000 H   0  0  0  0  0  0  0  0  0  0  0  0
   16.8608   -0.7434    0.0000 H   0  0  0  0  0  0  0  0  0  0  0  0
   17.6579   -0.7434    0.0000 H   0  0  0  0  0  0  0  0  0  0  0  0
    8.1316    0.7065    0.0000 H   0  0  0  0  0  0  0  0  0  0  0  0
    7.3346    0.7065    0.0000 H   0  0  0  0  0  0  0  0  0  0  0  0
   18.4354   -0.3054    0.0000 H   0  0  0  0  0  0  0  0  0  0  0  0
   18.6623    0.5415    0.0000 H   0  0  0  0  0  0  0  0  0  0  0  0
   17.8154    0.7685    0.0000 H   0  0  0  0  0  0  0  0  0  0  0  0
    6.3996    0.7065    0.0000 H   0  0  0  0  0  0  0  0  0  0  0  0
    5.6025    0.7065    0.0000 H   0  0  0  0  0  0  0  0  0  0  0  0
    4.7365   -0.7434    0.0000 H   0  0  0  0  0  0  0  0  0  0  0  0
    5.5335   -0.7434    0.0000 H   0  0  0  0  0  0  0  0  0  0  0  0
    2.0000   -0.4585    0.0000 H   0  0  0  0  0  0  0  0  0  0  0  0
    3.2130    1.1345    0.0000 H   0  0  0  0  0  0  0  0  0  0  0  0
  1  3  1  0  0  0  0
  1  4  1  0  0  0  0
  1  5  1  0  0  0  0
  1  6  2  0  0  0  0
  2 18  1  0  0  0  0
  2 20  1  0  0  0  0
  3 21  1  0  0  0  0
  4 53  1  0  0  0  0
  5 54  1  0  0  0  0
  7  8  1  0  0  0  0
  7  9  1  0  0  0  0
  7 22  1  0  0  0  0
  7 23  1  0  0  0  0
  8 10  1  0  0  0  0
  8 24  1  0  0  0  0
  8 25  1  0  0  0  0
  9 11  1  0  0  0  0
  9 26  1  0  0  0  0
  9 27  1  0  0  0  0
 10 12  1  0  0  0  0
 10 28  1  0  0  0  0
 10 29  1  0  0  0  0
 11 13  1  0  0  0  0
 11 30  1  0  0  0  0
 11 31  1  0  0  0  0
 12 14  1  0  0  0  0
 12 32  1  0  0  0  0
 12 33  1  0  0  0  0
 13 15  1  0  0  0  0
 13 34  1  0  0  0  0
 13 35  1  0  0  0  0
 14 16  1  0  0  0  0
 14 36  1  0  0  0  0
 14 37  1  0  0  0  0
 15 17  1  0  0  0  0
 15 38  1  0  0  0  0
 15 39  1  0  0  0  0
 16 18  1  0  0  0  0
 16 40  1  0  0  0  0
 16 41  1  0  0  0  0
 17 19  1  0  0  0  0
 17 42  1  0  0  0  0
 17 43  1  0  0  0  0
 18 44  1  0  0  0  0
 18 45  1  0  0  0  0
 19 46  1  0  0  0  0
 19 47  1  0  0  0  0
 19 48  1  0  0  0  0
 20 21  1  0  0  0  0
 20 49  1  0  0  0  0
 20 50  1  0  0  0  0
 21 51  1  0  0  0  0
 21 52  1  0  0  0  0
M  END
> <PUBCHEM_COMPOUND_CID>
20849296

> <PUBCHEM_COMPOUND_CANONICALIZED>
1

> <PUBCHEM_CACTVS_COMPLEXITY>
254

> <PUBCHEM_CACTVS_HBOND_ACCEPTOR>
5

> <PUBCHEM_CACTVS_HBOND_DONOR>
2

> <PUBCHEM_CACTVS_ROTATABLE_BOND>
16

> <PUBCHEM_CACTVS_SUBSKEYS>
AAADcfBwOAIAAAAAAAAAAAAAAAAAAAAAAAAAAAAAAAAAAAAAAAAAGgAACCAACACggAICAAAABRAAQAAAAIAAAAAAAAAAAAAAAAABAAIAAAACAAAEAAACAAGAwKAAAAAAAAAAAAAAAAAAAAAAAAAAAAAAAA==

> <PUBCHEM_IUPAC_OPENEYE_NAME>
2-tridecoxyethyl dihydrogen phosphate

> <PUBCHEM_IUPAC_CAS_NAME>
2-tridecoxyethyl dihydrogen phosphate

> <PUBCHEM_IUPAC_NAME_MARKUP>
2-tridecoxyethyl dihydrogen phosphate

> <PUBCHEM_IUPAC_NAME>
2-tridecoxyethyl dihydrogen phosphate

> <PUBCHEM_IUPAC_SYSTEMATIC_NAME>
2-tridecoxyethyl dihydrogen phosphate

> <PUBCHEM_IUPAC_TRADITIONAL_NAME>
2-tridecoxyethyl dihydrogen phosphate

> <PUBCHEM_IUPAC_INCHI>
InChI=1S/C15H33O5P/c1-2-3-4-5-6-7-8-9-10-11-12-13-19-14-15-20-21(16,17)18/h2-15H2,1H3,(H2,16,17,18)

> <PUBCHEM_IUPAC_INCHIKEY>
ZFIPQMZIBVDQOK-UHFFFAOYSA-N

> <PUBCHEM_XLOGP3_AA>
4.4

> <PUBCHEM_EXACT_MASS>
324.20656115

> <PUBCHEM_MOLECULAR_FORMULA>
C15H33O5P

> <PUBCHEM_MOLECULAR_WEIGHT>
324.39

> <PUBCHEM_SMILES>
CCCCCCCCCCCCCOCCOP(=O)(O)O

> <PUBCHEM_OPENEYE_CAN_SMILES>
CCCCCCCCCCCCCOCCOP(=O)(O)O

> <PUBCHEM_OPENEYE_ISO_SMILES>
CCCCCCCCCCCCCOCCOP(=O)(O)O

> <PUBCHEM_CACTVS_TPSA>
76

> <PUBCHEM_MONOISOTOPIC_WEIGHT>
324.20656115

> <PUBCHEM_TOTAL_CHARGE>
0

> <PUBCHEM_HEAVY_ATOM_COUNT>
21

> <PUBCHEM_ATOM_DEF_STEREO_COUNT>
0

> <PUBCHEM_ATOM_UDEF_STEREO_COUNT>
0

> <PUBCHEM_BOND_DEF_STEREO_COUNT>
0

> <PUBCHEM_BOND_UDEF_STEREO_COUNT>
0

> <PUBCHEM_ISOTOPIC_ATOM_COUNT>
0

> <PUBCHEM_COMPONENT_COUNT>
1

> <PUBCHEM_CACTVS_TAUTO_COUNT>
-1

> <PUBCHEM_COORDINATE_TYPE>
1
5
255

$$$$
