21149330
  -OEChem-04042505472D

 70 68  0     1  0  0  0  0  0999 V2000
    8.5142    0.0000    0.0000 Cl  0  5  0  0  0  0  0  0  0  0  0  0
    4.8671    2.9030    0.0000 O   0  0  0  0  0  0  0  0  0  0  0  0
    6.5991    3.9030    0.0000 O   0  0  0  0  0  0  0  0  0  0  0  0
    0.5369    3.4030    0.0000 O   0  0  0  0  0  0  0  0  0  0  0  0
    2.6350    6.5010    0.0000 O   0  0  0  0  0  0  0  0  0  0  0  0
    3.1350    3.9030    0.0000 N   0  3  0  0  0  0  0  0  0  0  0  0
    4.0010    4.4030    0.0000 C   0  0  0  0  0  0  0  0  0  0  0  0
    2.2690    3.4030    0.0000 C   0  0  0  0  0  0  0  0  0  0  0  0
    2.6350    4.7690    0.0000 C   0  0  0  0  0  0  0  0  0  0  0  0
    4.8671    3.9030    0.0000 C   0  0  3  0  0  0  0  0  0  0  0  0
    3.6350    3.0369    0.0000 C   0  0  0  0  0  0  0  0  0  0  0  0
    1.4030    3.9030    0.0000 C   0  0  0  0  0  0  0  0  0  0  0  0
    3.1350    5.6350    0.0000 C   0  0  0  0  0  0  0  0  0  0  0  0
    5.7331    4.4030    0.0000 C   0  0  0  0  0  0  0  0  0  0  0  0
   10.0632    3.9030    0.0000 C   0  0  0  0  0  0  0  0  0  0  0  0
    9.1972    4.4030    0.0000 C   0  0  0  0  0  0  0  0  0  0  0  0
    8.3312    3.9030    0.0000 C   0  0  0  0  0  0  0  0  0  0  0  0
   10.9292    4.4030    0.0000 C   0  0  0  0  0  0  0  0  0  0  0  0
    7.4651    4.4030    0.0000 C   0  0  0  0  0  0  0  0  0  0  0  0
   11.7953    3.9030    0.0000 C   0  0  0  0  0  0  0  0  0  0  0  0
   12.6613    4.4030    0.0000 C   0  0  0  0  0  0  0  0  0  0  0  0
   13.5273    3.9030    0.0000 C   0  0  0  0  0  0  0  0  0  0  0  0
   14.3933    4.4030    0.0000 C   0  0  0  0  0  0  0  0  0  0  0  0
   15.2594    3.9030    0.0000 C   0  0  0  0  0  0  0  0  0  0  0  0
   16.1254    4.4030    0.0000 C   0  0  0  0  0  0  0  0  0  0  0  0
   16.9914    3.9030    0.0000 C   0  0  0  0  0  0  0  0  0  0  0  0
    4.3996    4.8779    0.0000 H   0  0  0  0  0  0  0  0  0  0  0  0
    3.6025    4.8779    0.0000 H   0  0  0  0  0  0  0  0  0  0  0  0
    1.8705    2.9280    0.0000 H   0  0  0  0  0  0  0  0  0  0  0  0
    2.6675    2.9280    0.0000 H   0  0  0  0  0  0  0  0  0  0  0  0
    2.1601    5.1675    0.0000 H   0  0  0  0  0  0  0  0  0  0  0  0
    2.1601    4.3705    0.0000 H   0  0  0  0  0  0  0  0  0  0  0  0
    4.3301    3.5930    0.0000 H   0  0  0  0  0  0  0  0  0  0  0  0
    3.0981    2.7269    0.0000 H   0  0  0  0  0  0  0  0  0  0  0  0
    3.9450    2.5000    0.0000 H   0  0  0  0  0  0  0  0  0  0  0  0
    4.1720    3.3469    0.0000 H   0  0  0  0  0  0  0  0  0  0  0  0
    1.8015    4.3779    0.0000 H   0  0  0  0  0  0  0  0  0  0  0  0
    1.0044    4.3779    0.0000 H   0  0  0  0  0  0  0  0  0  0  0  0
    3.6100    5.2365    0.0000 H   0  0  0  0  0  0  0  0  0  0  0  0
    3.6100    6.0335    0.0000 H   0  0  0  0  0  0  0  0  0  0  0  0
    6.1316    4.8779    0.0000 H   0  0  0  0  0  0  0  0  0  0  0  0
    5.3346    4.8779    0.0000 H   0  0  0  0  0  0  0  0  0  0  0  0
    5.4040    2.5930    0.0000 H   0  0  0  0  0  0  0  0  0  0  0  0
    9.6647    3.4280    0.0000 H   0  0  0  0  0  0  0  0  0  0  0  0
   10.4617    3.4280    0.0000 H   0  0  0  0  0  0  0  0  0  0  0  0
    9.5957    4.8779    0.0000 H   0  0  0  0  0  0  0  0  0  0  0  0
    8.7987    4.8779    0.0000 H   0  0  0  0  0  0  0  0  0  0  0  0
   11.3278    4.8779    0.0000 H   0  0  0  0  0  0  0  0  0  0  0  0
   10.5307    4.8779    0.0000 H   0  0  0  0  0  0  0  0  0  0  0  0
    7.9326    3.4280    0.0000 H   0  0  0  0  0  0  0  0  0  0  0  0
    8.7297    3.4280    0.0000 H   0  0  0  0  0  0  0  0  0  0  0  0
    7.8637    4.8779    0.0000 H   0  0  0  0  0  0  0  0  0  0  0  0
    7.0666    4.8779    0.0000 H   0  0  0  0  0  0  0  0  0  0  0  0
   11.3967    3.4280    0.0000 H   0  0  0  0  0  0  0  0  0  0  0  0
   12.1938    3.4280    0.0000 H   0  0  0  0  0  0  0  0  0  0  0  0
   13.0598    4.8779    0.0000 H   0  0  0  0  0  0  0  0  0  0  0  0
   12.2628    4.8779    0.0000 H   0  0  0  0  0  0  0  0  0  0  0  0
   13.1288    3.4280    0.0000 H   0  0  0  0  0  0  0  0  0  0  0  0
   13.9258    3.4280    0.0000 H   0  0  0  0  0  0  0  0  0  0  0  0
    0.0000    3.7130    0.0000 H   0  0  0  0  0  0  0  0  0  0  0  0
    2.9450    7.0380    0.0000 H   0  0  0  0  0  0  0  0  0  0  0  0
   14.7919    4.8779    0.0000 H   0  0  0  0  0  0  0  0  0  0  0  0
   13.9948    4.8779    0.0000 H   0  0  0  0  0  0  0  0  0  0  0  0
   14.8608    3.4280    0.0000 H   0  0  0  0  0  0  0  0  0  0  0  0
   15.6579    3.4280    0.0000 H   0  0  0  0  0  0  0  0  0  0  0  0
   16.5239    4.8779    0.0000 H   0  0  0  0  0  0  0  0  0  0  0  0
   15.7269    4.8779    0.0000 H   0  0  0  0  0  0  0  0  0  0  0  0
   16.6814    3.3660    0.0000 H   0  0  0  0  0  0  0  0  0  0  0  0
   17.5284    3.5930    0.0000 H   0  0  0  0  0  0  0  0  0  0  0  0
   17.3014    4.4399    0.0000 H   0  0  0  0  0  0  0  0  0  0  0  0
  2 10  1  0  0  0  0
  2 43  1  0  0  0  0
  3 14  1  0  0  0  0
  3 19  1  0  0  0  0
  4 12  1  0  0  0  0
  4 60  1  0  0  0  0
  5 13  1  0  0  0  0
  5 61  1  0  0  0  0
  6  7  1  0  0  0  0
  6  8  1  0  0  0  0
  6  9  1  0  0  0  0
  6 11  1  0  0  0  0
  7 10  1  0  0  0  0
  7 27  1  0  0  0  0
  7 28  1  0  0  0  0
  8 12  1  0  0  0  0
  8 29  1  0  0  0  0
  8 30  1  0  0  0  0
  9 13  1  0  0  0  0
  9 31  1  0  0  0  0
  9 32  1  0  0  0  0
 10 14  1  0  0  0  0
 10 33  1  0  0  0  0
 11 34  1  0  0  0  0
 11 35  1  0  0  0  0
 11 36  1  0  0  0  0
 12 37  1  0  0  0  0
 12 38  1  0  0  0  0
 13 39  1  0  0  0  0
 13 40  1  0  0  0  0
 14 41  1  0  0  0  0
 14 42  1  0  0  0  0
 15 16  1  0  0  0  0
 15 18  1  0  0  0  0
 15 44  1  0  0  0  0
 15 45  1  0  0  0  0
 16 17  1  0  0  0  0
 16 46  1  0  0  0  0
 16 47  1  0  0  0  0
 17 19  1  0  0  0  0
 17 50  1  0  0  0  0
 17 51  1  0  0  0  0
 18 20  1  0  0  0  0
 18 48  1  0  0  0  0
 18 49  1  0  0  0  0
 19 52  1  0  0  0  0
 19 53  1  0  0  0  0
 20 21  1  0  0  0  0
 20 54  1  0  0  0  0
 20 55  1  0  0  0  0
 21 22  1  0  0  0  0
 21 56  1  0  0  0  0
 21 57  1  0  0  0  0
 22 23  1  0  0  0  0
 22 58  1  0  0  0  0
 22 59  1  0  0  0  0
 23 24  1  0  0  0  0
 23 62  1  0  0  0  0
 23 63  1  0  0  0  0
 24 25  1  0  0  0  0
 24 64  1  0  0  0  0
 24 65  1  0  0  0  0
 25 26  1  0  0  0  0
 25 66  1  0  0  0  0
 25 67  1  0  0  0  0
 26 68  1  0  0  0  0
 26 69  1  0  0  0  0
 26 70  1  0  0  0  0
M  CHG  2   1  -1   6   1
M  END
> <PUBCHEM_COMPOUND_CID>
21149330

> <PUBCHEM_COMPOUND_CANONICALIZED>
1

> <PUBCHEM_CACTVS_COMPLEXITY>
270

> <PUBCHEM_CACTVS_HBOND_ACCEPTOR>
5

> <PUBCHEM_CACTVS_HBOND_DONOR>
3

> <PUBCHEM_CACTVS_ROTATABLE_BOND>
19

> <PUBCHEM_CACTVS_SUBSKEYS>
AAADcfB6OAAEAAAAAAAAAAAAAAAAAAAAAAAAAAAAAAAAAAAAAAAAHgAACAAACBThgAYCAAMABgAAAAAAAAAAAAAAAAAAAAAIAAADEAIAAAAGAAAGAACTAAGAwKAAAAAAAAAAAAAAAAAAAAAAAAAAAAAAAA==

> <PUBCHEM_IUPAC_OPENEYE_NAME>
(3-dodecoxy-2-hydroxy-propyl)-bis(2-hydroxyethyl)-methyl-ammonium;chloride

> <PUBCHEM_IUPAC_CAS_NAME>
(3-dodecoxy-2-hydroxypropyl)-bis(2-hydroxyethyl)-methylammonium;chloride

> <PUBCHEM_IUPAC_NAME_MARKUP>
(3-dodecoxy-2-hydroxypropyl)-bis(2-hydroxyethyl)-methylazanium;chloride

> <PUBCHEM_IUPAC_NAME>
(3-dodecoxy-2-hydroxypropyl)-bis(2-hydroxyethyl)-methylazanium;chloride

> <PUBCHEM_IUPAC_SYSTEMATIC_NAME>
(3-dodecoxy-2-oxidanyl-propyl)-bis(2-hydroxyethyl)-methyl-azanium;chloride

> <PUBCHEM_IUPAC_TRADITIONAL_NAME>
bis(2-hydroxyethyl)-(2-hydroxy-3-lauryloxy-propyl)-methyl-ammonium;chloride

> <PUBCHEM_IUPAC_INCHI>
InChI=1S/C20H44NO4.ClH/c1-3-4-5-6-7-8-9-10-11-12-17-25-19-20(24)18-21(2,13-15-22)14-16-23;/h20,22-24H,3-19H2,1-2H3;1H/q+1;/p-1

> <PUBCHEM_IUPAC_INCHIKEY>
ONBIVJYAPNYEDQ-UHFFFAOYSA-M

> <PUBCHEM_EXACT_MASS>
397.2958866

> <PUBCHEM_MOLECULAR_FORMULA>
C20H44ClNO4

> <PUBCHEM_MOLECULAR_WEIGHT>
398.0

> <PUBCHEM_SMILES>
CCCCCCCCCCCCOCC(C[N+](C)(CCO)CCO)O.[Cl-]

> <PUBCHEM_OPENEYE_CAN_SMILES>
CCCCCCCCCCCCOCC(C[N+](C)(CCO)CCO)O.[Cl-]

> <PUBCHEM_OPENEYE_ISO_SMILES>
CCCCCCCCCCCCOCC(C[N+](C)(CCO)CCO)O.[Cl-]

> <PUBCHEM_CACTVS_TPSA>
69.9

> <PUBCHEM_MONOISOTOPIC_WEIGHT>
397.2958866

> <PUBCHEM_TOTAL_CHARGE>
0

> <PUBCHEM_HEAVY_ATOM_COUNT>
26

> <PUBCHEM_ATOM_DEF_STEREO_COUNT>
0

> <PUBCHEM_ATOM_UDEF_STEREO_COUNT>
1

> <PUBCHEM_BOND_DEF_STEREO_COUNT>
0

> <PUBCHEM_BOND_UDEF_STEREO_COUNT>
0

> <PUBCHEM_ISOTOPIC_ATOM_COUNT>
0

> <PUBCHEM_COMPONENT_COUNT>
2

> <PUBCHEM_CACTVS_TAUTO_COUNT>
-1

> <PUBCHEM_COORDINATE_TYPE>
1
5
255

> <PUBCHEM_BONDANNOTATIONS>
10  2  3

$$$$
