21257258
  -OEChem-04042512212D

 16 15  0     0  0  0  0  0  0999 V2000
    8.0622    0.5670    0.0000 I   0  0  0  0  0  0  0  0  0  0  0  0
    5.8301    1.4330    0.0000 F   0  0  0  0  0  0  0  0  0  0  0  0
    6.8301   -0.2990    0.0000 F   0  0  0  0  0  0  0  0  0  0  0  0
    4.9641    0.9330    0.0000 F   0  0  0  0  0  0  0  0  0  0  0  0
    5.9641   -0.7990    0.0000 F   0  0  0  0  0  0  0  0  0  0  0  0
    3.7320    1.0670    0.0000 F   0  0  0  0  0  0  0  0  0  0  0  0
    2.0000    0.0670    0.0000 F   0  0  0  0  0  0  0  0  0  0  0  0
    2.8660   -1.4330    0.0000 F   0  0  0  0  0  0  0  0  0  0  0  0
    4.5981   -0.4330    0.0000 O   0  0  0  0  0  0  0  0  0  0  0  0
    6.3301    0.5670    0.0000 C   0  0  0  0  0  0  0  0  0  0  0  0
    5.4641    0.0670    0.0000 C   0  0  0  0  0  0  0  0  0  0  0  0
    7.1962    1.0670    0.0000 C   0  0  0  0  0  0  0  0  0  0  0  0
    3.7320    0.0670    0.0000 C   0  0  0  0  0  0  0  0  0  0  0  0
    2.8660   -0.4330    0.0000 C   0  0  0  0  0  0  0  0  0  0  0  0
    7.5947    1.5419    0.0000 H   0  0  0  0  0  0  0  0  0  0  0  0
    6.7976    1.5419    0.0000 H   0  0  0  0  0  0  0  0  0  0  0  0
  1 12  1  0  0  0  0
  2 10  1  0  0  0  0
  3 10  1  0  0  0  0
  4 11  1  0  0  0  0
  5 11  1  0  0  0  0
  6 13  1  0  0  0  0
  7 14  1  0  0  0  0
  8 14  1  0  0  0  0
  9 11  1  0  0  0  0
  9 13  1  0  0  0  0
 10 11  1  0  0  0  0
 10 12  1  0  0  0  0
 12 15  1  0  0  0  0
 12 16  1  0  0  0  0
 13 14  2  0  0  0  0
M  END
> <PUBCHEM_COMPOUND_CID>
21257258

> <PUBCHEM_COMPOUND_CANONICALIZED>
1

> <PUBCHEM_CACTVS_COMPLEXITY>
234

> <PUBCHEM_CACTVS_HBOND_ACCEPTOR>
8

> <PUBCHEM_CACTVS_HBOND_DONOR>
0

> <PUBCHEM_CACTVS_ROTATABLE_BOND>
4

> <PUBCHEM_CACTVS_SUBSKEYS>
AAADcQBgIcAAAgAAAAAAAAAAAAAAAAAAAAAAAAAAAAAAAAAAAAAAGwAgAAAACACCgBAAAAAABACAAAAAAAAACAAAAAAAAAAAAAAAAAAAAAAAAAAAAAAAAAAAAAAAAAAAAAAAAAAAAAAAAAAAAAAAAAAAAA==

> <PUBCHEM_IUPAC_OPENEYE_NAME>
1,1,2,2-tetrafluoro-3-iodo-1-(1,2,2-trifluorovinyloxy)propane

> <PUBCHEM_IUPAC_CAS_NAME>
1,1,2,2-tetrafluoro-3-iodo-1-(1,2,2-trifluoroethenoxy)propane

> <PUBCHEM_IUPAC_NAME_MARKUP>
1,1,2,2-tetrafluoro-3-iodo-1-(1,2,2-trifluoroethenoxy)propane

> <PUBCHEM_IUPAC_NAME>
1,1,2,2-tetrafluoro-3-iodo-1-(1,2,2-trifluoroethenoxy)propane

> <PUBCHEM_IUPAC_SYSTEMATIC_NAME>
1,1,2,2-tetrakis(fluoranyl)-3-iodanyl-1-[1,2,2-tris(fluoranyl)ethenoxy]propane

> <PUBCHEM_IUPAC_TRADITIONAL_NAME>
1,1,2,2-tetrafluoro-3-iodo-1-(1,2,2-trifluorovinyloxy)propane

> <PUBCHEM_IUPAC_INCHI>
InChI=1S/C5H2F7IO/c6-2(7)3(8)14-5(11,12)4(9,10)1-13/h1H2

> <PUBCHEM_IUPAC_INCHIKEY>
XXRDNYJWRWNIMR-UHFFFAOYSA-N

> <PUBCHEM_XLOGP3_AA>
3.7

> <PUBCHEM_EXACT_MASS>
337.90386

> <PUBCHEM_MOLECULAR_FORMULA>
C5H2F7IO

> <PUBCHEM_MOLECULAR_WEIGHT>
337.96

> <PUBCHEM_SMILES>
C(C(C(OC(=C(F)F)F)(F)F)(F)F)I

> <PUBCHEM_OPENEYE_CAN_SMILES>
C(C(C(OC(=C(F)F)F)(F)F)(F)F)I

> <PUBCHEM_OPENEYE_ISO_SMILES>
C(C(C(OC(=C(F)F)F)(F)F)(F)F)I

> <PUBCHEM_CACTVS_TPSA>
9.2

> <PUBCHEM_MONOISOTOPIC_WEIGHT>
337.90386

> <PUBCHEM_TOTAL_CHARGE>
0

> <PUBCHEM_HEAVY_ATOM_COUNT>
14

> <PUBCHEM_ATOM_DEF_STEREO_COUNT>
0

> <PUBCHEM_ATOM_UDEF_STEREO_COUNT>
0

> <PUBCHEM_BOND_DEF_STEREO_COUNT>
0

> <PUBCHEM_BOND_UDEF_STEREO_COUNT>
0

> <PUBCHEM_ISOTOPIC_ATOM_COUNT>
0

> <PUBCHEM_COMPONENT_COUNT>
1

> <PUBCHEM_CACTVS_TAUTO_COUNT>
-1

> <PUBCHEM_COORDINATE_TYPE>
1
5
255

$$$$
