21981350
  -OEChem-04042512452D

 24 24  0     1  0  0  0  0  0999 V2000
    3.7958   -2.5862    0.0000 Ca  0  2  0  0  0  0  0  0  0  0  0  0
    4.2184   -1.6799    0.0000 O   0  5  0  0  0  0  0  0  0  0  0  0
    2.7320    2.4041    0.0000 O   0  5  0  0  0  0  0  0  0  0  0  0
    2.6487   -0.9479    0.0000 O   0  0  0  0  0  0  0  0  0  0  0  0
    2.0000    0.8343    0.0000 O   0  0  0  0  0  0  0  0  0  0  0  0
    5.4402    0.6376    0.0000 C   0  0  3  0  0  0  0  0  0  0  0  0
    5.6990    1.6036    0.0000 C   0  0  3  0  0  0  0  0  0  0  0  0
    4.9624    2.5862    0.0000 C   0  0  0  0  0  0  0  0  0  0  0  0
    4.0675    0.0456    0.0000 C   0  0  3  0  0  0  0  0  0  0  0  0
    3.7255    0.9853    0.0000 C   0  0  3  0  0  0  0  0  0  0  0  0
    6.8391    0.1288    0.0000 C   0  0  0  0  0  0  0  0  0  0  0  0
    7.0979    1.0947    0.0000 C   0  0  0  0  0  0  0  0  0  0  0  0
    3.6449   -0.8607    0.0000 C   0  0  0  0  0  0  0  0  0  0  0  0
    2.8192    1.4079    0.0000 C   0  0  0  0  0  0  0  0  0  0  0  0
    5.4583    0.0179    0.0000 H   0  0  0  0  0  0  0  0  0  0  0  0
    5.6850    0.9837    0.0000 H   0  0  0  0  0  0  0  0  0  0  0  0
    5.2802    3.1185    0.0000 H   0  0  0  0  0  0  0  0  0  0  0  0
    4.3492    2.6781    0.0000 H   0  0  0  0  0  0  0  0  0  0  0  0
    4.4995   -0.3991    0.0000 H   0  0  0  0  0  0  0  0  0  0  0  0
    3.7666    1.6039    0.0000 H   0  0  0  0  0  0  0  0  0  0  0  0
    6.6442   -0.4598    0.0000 H   0  0  0  0  0  0  0  0  0  0  0  0
    7.4331   -0.0490    0.0000 H   0  0  0  0  0  0  0  0  0  0  0  0
    7.6919    0.9170    0.0000 H   0  0  0  0  0  0  0  0  0  0  0  0
    7.2929    1.6833    0.0000 H   0  0  0  0  0  0  0  0  0  0  0  0
  2 13  1  0  0  0  0
  3 14  1  0  0  0  0
  4 13  2  0  0  0  0
  5 14  2  0  0  0  0
  6  8  1  0  0  0  0
  6  9  1  0  0  0  0
  6 11  1  0  0  0  0
  6 15  1  0  0  0  0
  7  8  1  0  0  0  0
  7 10  1  0  0  0  0
  7 12  1  0  0  0  0
  7 16  1  0  0  0  0
  8 17  1  0  0  0  0
  8 18  1  0  0  0  0
  9 10  1  0  0  0  0
  9 13  1  0  0  0  0
  9 19  1  0  0  0  0
 10 14  1  0  0  0  0
 10 20  1  0  0  0  0
 11 12  1  0  0  0  0
 11 21  1  0  0  0  0
 11 22  1  0  0  0  0
 12 23  1  0  0  0  0
 12 24  1  0  0  0  0
M  CHG  3   1   2   2  -1   3  -1
M  END
> <PUBCHEM_COMPOUND_CID>
21981350

> <PUBCHEM_COMPOUND_CANONICALIZED>
1

> <PUBCHEM_CACTVS_COMPLEXITY>
223

> <PUBCHEM_CACTVS_HBOND_ACCEPTOR>
4

> <PUBCHEM_CACTVS_HBOND_DONOR>
0

> <PUBCHEM_CACTVS_ROTATABLE_BOND>
0

> <PUBCHEM_CACTVS_SUBSKEYS>
AAADccBwOAAAAAgAAAAAAAAAAAAAAYMAAAAwAAAAAAAAAAAAAAAAGgAAAAAADQCAgAAACAAAAAAIAACQCAAAAAAAAAAAAAEAAAAAABIAAAAAAAAEAAAAAAHLyPCOgAAAAAAAAAAAAAQAACAAAQAACAAAAA==

> <PUBCHEM_IUPAC_OPENEYE_NAME>
calcium;norbornane-2,3-dicarboxylate

> <PUBCHEM_IUPAC_CAS_NAME>
calcium;bicyclo[2.2.1]heptane-2,3-dicarboxylate

> <PUBCHEM_IUPAC_NAME_MARKUP>
calcium;bicyclo[2.2.1]heptane-2,3-dicarboxylate

> <PUBCHEM_IUPAC_NAME>
calcium;bicyclo[2.2.1]heptane-2,3-dicarboxylate

> <PUBCHEM_IUPAC_SYSTEMATIC_NAME>
calcium;bicyclo[2.2.1]heptane-2,3-dicarboxylate

> <PUBCHEM_IUPAC_TRADITIONAL_NAME>
calcium;norbornane-2,3-dicarboxylate

> <PUBCHEM_IUPAC_INCHI>
InChI=1S/C9H12O4.Ca/c10-8(11)6-4-1-2-5(3-4)7(6)9(12)13;/h4-7H,1-3H2,(H,10,11)(H,12,13);/q;+2/p-2

> <PUBCHEM_IUPAC_INCHIKEY>
MIHDGSOYBPAAHC-UHFFFAOYSA-L

> <PUBCHEM_EXACT_MASS>
222.0204996

> <PUBCHEM_MOLECULAR_FORMULA>
C9H10CaO4

> <PUBCHEM_MOLECULAR_WEIGHT>
222.25

> <PUBCHEM_SMILES>
C1CC2CC1C(C2C(=O)[O-])C(=O)[O-].[Ca+2]

> <PUBCHEM_OPENEYE_CAN_SMILES>
C1CC2CC1C(C2C(=O)[O-])C(=O)[O-].[Ca+2]

> <PUBCHEM_OPENEYE_ISO_SMILES>
C1CC2CC1C(C2C(=O)[O-])C(=O)[O-].[Ca+2]

> <PUBCHEM_CACTVS_TPSA>
80.3

> <PUBCHEM_MONOISOTOPIC_WEIGHT>
222.0204996

> <PUBCHEM_TOTAL_CHARGE>
0

> <PUBCHEM_HEAVY_ATOM_COUNT>
14

> <PUBCHEM_ATOM_DEF_STEREO_COUNT>
0

> <PUBCHEM_ATOM_UDEF_STEREO_COUNT>
4

> <PUBCHEM_BOND_DEF_STEREO_COUNT>
0

> <PUBCHEM_BOND_UDEF_STEREO_COUNT>
0

> <PUBCHEM_ISOTOPIC_ATOM_COUNT>
0

> <PUBCHEM_COMPONENT_COUNT>
2

> <PUBCHEM_CACTVS_TAUTO_COUNT>
-1

> <PUBCHEM_COORDINATE_TYPE>
1
5
255

> <PUBCHEM_BONDANNOTATIONS>
10  14  3
6  11  3
7  12  3
9  13  3

$$$$
