22477175
  -OEChem-04042505512D

 82 80  0     0  0  0  0  0  0999 V2000
    0.5369    5.7850    0.0000 O   0  0  0  0  0  0  0  0  0  0  0  0
    1.4030    4.2850    0.0000 O   0  0  0  0  0  0  0  0  0  0  0  0
   10.0632    0.3100    0.0000 O   0  0  0  0  0  0  0  0  0  0  0  0
   11.7953    1.3100    0.0000 O   0  0  0  0  0  0  0  0  0  0  0  0
    8.3312    1.3100    0.0000 O   0  0  0  0  0  0  0  0  0  0  0  0
   10.9292    5.7850    0.0000 C   0  0  0  0  0  0  0  0  0  0  0  0
   10.0632    5.2850    0.0000 C   0  0  0  0  0  0  0  0  0  0  0  0
   11.7953    5.2850    0.0000 C   0  0  0  0  0  0  0  0  0  0  0  0
    9.1972    5.7850    0.0000 C   0  0  0  0  0  0  0  0  0  0  0  0
   12.6613    5.7850    0.0000 C   0  0  0  0  0  0  0  0  0  0  0  0
    8.3312    5.2850    0.0000 C   0  0  0  0  0  0  0  0  0  0  0  0
   13.5273    5.2850    0.0000 C   0  0  0  0  0  0  0  0  0  0  0  0
    7.4651    5.7850    0.0000 C   0  0  0  0  0  0  0  0  0  0  0  0
   14.3933    5.7850    0.0000 C   0  0  0  0  0  0  0  0  0  0  0  0
    6.5991    5.2850    0.0000 C   0  0  0  0  0  0  0  0  0  0  0  0
   15.2594    5.2850    0.0000 C   0  0  0  0  0  0  0  0  0  0  0  0
    5.7331    5.7850    0.0000 C   0  0  0  0  0  0  0  0  0  0  0  0
   16.1254    5.7850    0.0000 C   0  0  0  0  0  0  0  0  0  0  0  0
    4.8671    5.2850    0.0000 C   0  0  0  0  0  0  0  0  0  0  0  0
   16.9914    5.2850    0.0000 C   0  0  0  0  0  0  0  0  0  0  0  0
    4.0010    5.7850    0.0000 C   0  0  0  0  0  0  0  0  0  0  0  0
   17.8574    5.7850    0.0000 C   0  0  0  0  0  0  0  0  0  0  0  0
    3.1350    5.2850    0.0000 C   0  0  0  0  0  0  0  0  0  0  0  0
   18.7235    5.2850    0.0000 C   0  0  0  0  0  0  0  0  0  0  0  0
    2.2690    5.7850    0.0000 C   0  0  0  0  0  0  0  0  0  0  0  0
   19.5895    5.7850    0.0000 C   0  0  0  0  0  0  0  0  0  0  0  0
    1.4030    5.2850    0.0000 C   0  0  0  0  0  0  0  0  0  0  0  0
   10.0632    1.3100    0.0000 C   0  0  0  0  0  0  0  0  0  0  0  0
   10.9292    1.8100    0.0000 C   0  0  0  0  0  0  0  0  0  0  0  0
    9.1972    1.8100    0.0000 C   0  0  0  0  0  0  0  0  0  0  0  0
   11.3278    6.2599    0.0000 H   0  0  0  0  0  0  0  0  0  0  0  0
   10.5307    6.2599    0.0000 H   0  0  0  0  0  0  0  0  0  0  0  0
    9.6647    4.8100    0.0000 H   0  0  0  0  0  0  0  0  0  0  0  0
   10.4617    4.8100    0.0000 H   0  0  0  0  0  0  0  0  0  0  0  0
   11.3967    4.8100    0.0000 H   0  0  0  0  0  0  0  0  0  0  0  0
   12.1938    4.8100    0.0000 H   0  0  0  0  0  0  0  0  0  0  0  0
    9.5957    6.2599    0.0000 H   0  0  0  0  0  0  0  0  0  0  0  0
    8.7987    6.2599    0.0000 H   0  0  0  0  0  0  0  0  0  0  0  0
   13.0598    6.2599    0.0000 H   0  0  0  0  0  0  0  0  0  0  0  0
   12.2628    6.2599    0.0000 H   0  0  0  0  0  0  0  0  0  0  0  0
    7.9326    4.8100    0.0000 H   0  0  0  0  0  0  0  0  0  0  0  0
    8.7297    4.8100    0.0000 H   0  0  0  0  0  0  0  0  0  0  0  0
   13.1288    4.8100    0.0000 H   0  0  0  0  0  0  0  0  0  0  0  0
   13.9258    4.8100    0.0000 H   0  0  0  0  0  0  0  0  0  0  0  0
    7.8637    6.2599    0.0000 H   0  0  0  0  0  0  0  0  0  0  0  0
    7.0666    6.2599    0.0000 H   0  0  0  0  0  0  0  0  0  0  0  0
   14.7919    6.2599    0.0000 H   0  0  0  0  0  0  0  0  0  0  0  0
   13.9948    6.2599    0.0000 H   0  0  0  0  0  0  0  0  0  0  0  0
    6.2006    4.8100    0.0000 H   0  0  0  0  0  0  0  0  0  0  0  0
    6.9976    4.8100    0.0000 H   0  0  0  0  0  0  0  0  0  0  0  0
   14.8608    4.8100    0.0000 H   0  0  0  0  0  0  0  0  0  0  0  0
   15.6579    4.8100    0.0000 H   0  0  0  0  0  0  0  0  0  0  0  0
    6.1316    6.2599    0.0000 H   0  0  0  0  0  0  0  0  0  0  0  0
    5.3346    6.2599    0.0000 H   0  0  0  0  0  0  0  0  0  0  0  0
   16.5239    6.2599    0.0000 H   0  0  0  0  0  0  0  0  0  0  0  0
   15.7269    6.2599    0.0000 H   0  0  0  0  0  0  0  0  0  0  0  0
    4.4685    4.8100    0.0000 H   0  0  0  0  0  0  0  0  0  0  0  0
    5.2656    4.8100    0.0000 H   0  0  0  0  0  0  0  0  0  0  0  0
   16.5929    4.8100    0.0000 H   0  0  0  0  0  0  0  0  0  0  0  0
   17.3899    4.8100    0.0000 H   0  0  0  0  0  0  0  0  0  0  0  0
    4.3996    6.2599    0.0000 H   0  0  0  0  0  0  0  0  0  0  0  0
    3.6025    6.2599    0.0000 H   0  0  0  0  0  0  0  0  0  0  0  0
   18.2560    6.2599    0.0000 H   0  0  0  0  0  0  0  0  0  0  0  0
   17.4589    6.2599    0.0000 H   0  0  0  0  0  0  0  0  0  0  0  0
    2.7365    4.8100    0.0000 H   0  0  0  0  0  0  0  0  0  0  0  0
    3.5335    4.8100    0.0000 H   0  0  0  0  0  0  0  0  0  0  0  0
   18.3249    4.8100    0.0000 H   0  0  0  0  0  0  0  0  0  0  0  0
   19.1220    4.8100    0.0000 H   0  0  0  0  0  0  0  0  0  0  0  0
    2.6675    6.2599    0.0000 H   0  0  0  0  0  0  0  0  0  0  0  0
    1.8705    6.2599    0.0000 H   0  0  0  0  0  0  0  0  0  0  0  0
   19.8995    5.2480    0.0000 H   0  0  0  0  0  0  0  0  0  0  0  0
   20.1264    6.0950    0.0000 H   0  0  0  0  0  0  0  0  0  0  0  0
   19.2795    6.3219    0.0000 H   0  0  0  0  0  0  0  0  0  0  0  0
    0.0000    5.4750    0.0000 H   0  0  0  0  0  0  0  0  0  0  0  0
   10.6002    1.0000    0.0000 H   0  0  0  0  0  0  0  0  0  0  0  0
   11.3278    2.2849    0.0000 H   0  0  0  0  0  0  0  0  0  0  0  0
   10.5307    2.2849    0.0000 H   0  0  0  0  0  0  0  0  0  0  0  0
    9.5957    2.2849    0.0000 H   0  0  0  0  0  0  0  0  0  0  0  0
    8.7987    2.2849    0.0000 H   0  0  0  0  0  0  0  0  0  0  0  0
    9.5263    0.0000    0.0000 H   0  0  0  0  0  0  0  0  0  0  0  0
   12.3322    1.6200    0.0000 H   0  0  0  0  0  0  0  0  0  0  0  0
    7.7942    1.6200    0.0000 H   0  0  0  0  0  0  0  0  0  0  0  0
  1 27  1  0  0  0  0
  1 74  1  0  0  0  0
  2 27  2  0  0  0  0
  3 28  1  0  0  0  0
  3 80  1  0  0  0  0
  4 29  1  0  0  0  0
  4 81  1  0  0  0  0
  5 30  1  0  0  0  0
  5 82  1  0  0  0  0
  6  7  1  0  0  0  0
  6  8  1  0  0  0  0
  6 31  1  0  0  0  0
  6 32  1  0  0  0  0
  7  9  1  0  0  0  0
  7 33  1  0  0  0  0
  7 34  1  0  0  0  0
  8 10  1  0  0  0  0
  8 35  1  0  0  0  0
  8 36  1  0  0  0  0
  9 11  1  0  0  0  0
  9 37  1  0  0  0  0
  9 38  1  0  0  0  0
 10 12  1  0  0  0  0
 10 39  1  0  0  0  0
 10 40  1  0  0  0  0
 11 13  1  0  0  0  0
 11 41  1  0  0  0  0
 11 42  1  0  0  0  0
 12 14  1  0  0  0  0
 12 43  1  0  0  0  0
 12 44  1  0  0  0  0
 13 15  1  0  0  0  0
 13 45  1  0  0  0  0
 13 46  1  0  0  0  0
 14 16  1  0  0  0  0
 14 47  1  0  0  0  0
 14 48  1  0  0  0  0
 15 17  1  0  0  0  0
 15 49  1  0  0  0  0
 15 50  1  0  0  0  0
 16 18  1  0  0  0  0
 16 51  1  0  0  0  0
 16 52  1  0  0  0  0
 17 19  1  0  0  0  0
 17 53  1  0  0  0  0
 17 54  1  0  0  0  0
 18 20  1  0  0  0  0
 18 55  1  0  0  0  0
 18 56  1  0  0  0  0
 19 21  1  0  0  0  0
 19 57  1  0  0  0  0
 19 58  1  0  0  0  0
 20 22  1  0  0  0  0
 20 59  1  0  0  0  0
 20 60  1  0  0  0  0
 21 23  1  0  0  0  0
 21 61  1  0  0  0  0
 21 62  1  0  0  0  0
 22 24  1  0  0  0  0
 22 63  1  0  0  0  0
 22 64  1  0  0  0  0
 23 25  1  0  0  0  0
 23 65  1  0  0  0  0
 23 66  1  0  0  0  0
 24 26  1  0  0  0  0
 24 67  1  0  0  0  0
 24 68  1  0  0  0  0
 25 27  1  0  0  0  0
 25 69  1  0  0  0  0
 25 70  1  0  0  0  0
 26 71  1  0  0  0  0
 26 72  1  0  0  0  0
 26 73  1  0  0  0  0
 28 29  1  0  0  0  0
 28 30  1  0  0  0  0
 28 75  1  0  0  0  0
 29 76  1  0  0  0  0
 29 77  1  0  0  0  0
 30 78  1  0  0  0  0
 30 79  1  0  0  0  0
M  END
> <PUBCHEM_COMPOUND_CID>
22477175

> <PUBCHEM_COMPOUND_CANONICALIZED>
1

> <PUBCHEM_CACTVS_COMPLEXITY>
276

> <PUBCHEM_CACTVS_HBOND_ACCEPTOR>
5

> <PUBCHEM_CACTVS_HBOND_DONOR>
4

> <PUBCHEM_CACTVS_ROTATABLE_BOND>
22

> <PUBCHEM_CACTVS_SUBSKEYS>
AAADcfB4OAAAAAAAAAAAAAAAAAAAAAAAAAAAAAAAAAAAAAAAAAAAGgAACAAACBSggAICCAAAAgAIAACQCAAAAAAAAAAAAAEAAAABEBIAAAAAQAAFAAABAAGIyKCAAAAAAAAAAAAAAAAAAAAAAAAAAAAAAA==

> <PUBCHEM_IUPAC_OPENEYE_NAME>
docosanoic acid;glycerol

> <PUBCHEM_IUPAC_CAS_NAME>
docosanoic acid;propane-1,2,3-triol

> <PUBCHEM_IUPAC_NAME_MARKUP>
docosanoic acid;propane-1,2,3-triol

> <PUBCHEM_IUPAC_NAME>
docosanoic acid;propane-1,2,3-triol

> <PUBCHEM_IUPAC_SYSTEMATIC_NAME>
docosanoic acid;propane-1,2,3-triol

> <PUBCHEM_IUPAC_TRADITIONAL_NAME>
behenic acid;glycerol

> <PUBCHEM_IUPAC_INCHI>
InChI=1S/C22H44O2.C3H8O3/c1-2-3-4-5-6-7-8-9-10-11-12-13-14-15-16-17-18-19-20-21-22(23)24;4-1-3(6)2-5/h2-21H2,1H3,(H,23,24);3-6H,1-2H2

> <PUBCHEM_IUPAC_INCHIKEY>
BYNVYIUJKRRNNC-UHFFFAOYSA-N

> <PUBCHEM_EXACT_MASS>
432.38147475

> <PUBCHEM_MOLECULAR_FORMULA>
C25H52O5

> <PUBCHEM_MOLECULAR_WEIGHT>
432.7

> <PUBCHEM_SMILES>
CCCCCCCCCCCCCCCCCCCCCC(=O)O.C(C(CO)O)O

> <PUBCHEM_OPENEYE_CAN_SMILES>
CCCCCCCCCCCCCCCCCCCCCC(=O)O.C(C(CO)O)O

> <PUBCHEM_OPENEYE_ISO_SMILES>
CCCCCCCCCCCCCCCCCCCCCC(=O)O.C(C(CO)O)O

> <PUBCHEM_CACTVS_TPSA>
98

> <PUBCHEM_MONOISOTOPIC_WEIGHT>
432.38147475

> <PUBCHEM_TOTAL_CHARGE>
0

> <PUBCHEM_HEAVY_ATOM_COUNT>
30

> <PUBCHEM_ATOM_DEF_STEREO_COUNT>
0

> <PUBCHEM_ATOM_UDEF_STEREO_COUNT>
0

> <PUBCHEM_BOND_DEF_STEREO_COUNT>
0

> <PUBCHEM_BOND_UDEF_STEREO_COUNT>
0

> <PUBCHEM_ISOTOPIC_ATOM_COUNT>
0

> <PUBCHEM_COMPONENT_COUNT>
2

> <PUBCHEM_CACTVS_TAUTO_COUNT>
-1

> <PUBCHEM_COORDINATE_TYPE>
1
5
255

$$$$
