22833309
  -OEChem-04042513072D

125125  0     1  0  0  0  0  0999 V2000
    8.5421   -7.1307    0.0000 O   0  0  0  0  0  0  0  0  0  0  0  0
    5.9730   -6.8216    0.0000 O   0  0  0  0  0  0  0  0  0  0  0  0
    8.5991   -5.0429    0.0000 O   0  0  0  0  0  0  0  0  0  0  0  0
    6.6453   -8.8907    0.0000 O   0  0  0  0  0  0  0  0  0  0  0  0
    6.8671   -4.0429    0.0000 O   0  0  0  0  0  0  0  0  0  0  0  0
    7.7331   -3.5429    0.0000 O   0  0  0  0  0  0  0  0  0  0  0  0
    5.1350   -4.0429    0.0000 O   0  0  0  0  0  0  0  0  0  0  0  0
    7.7331   -6.5429    0.0000 C   0  0  1  0  0  0  0  0  0  0  0  0
    6.9241   -7.1307    0.0000 C   0  0  1  0  0  0  0  0  0  0  0  0
    7.2331   -8.0817    0.0000 C   0  0  2  0  0  0  0  0  0  0  0  0
    7.7331   -5.5429    0.0000 C   0  0  1  0  0  0  0  0  0  0  0  0
    8.2331   -8.0817    0.0000 C   0  0  0  0  0  0  0  0  0  0  0  0
    6.8671   -5.0429    0.0000 C   0  0  0  0  0  0  0  0  0  0  0  0
    8.5991   -4.0429    0.0000 C   0  0  0  0  0  0  0  0  0  0  0  0
    9.4651   -3.5429    0.0000 C   0  0  0  0  0  0  0  0  0  0  0  0
    9.4651   -2.5429    0.0000 C   0  0  0  0  0  0  0  0  0  0  0  0
   10.3312   -2.0429    0.0000 C   0  0  0  0  0  0  0  0  0  0  0  0
    6.0010   -3.5429    0.0000 C   0  0  0  0  0  0  0  0  0  0  0  0
   10.3312   -1.0429    0.0000 C   0  0  0  0  0  0  0  0  0  0  0  0
    6.0010   -2.5429    0.0000 C   0  0  0  0  0  0  0  0  0  0  0  0
    5.1350   -2.0429    0.0000 C   0  0  0  0  0  0  0  0  0  0  0  0
   11.1972   -0.5429    0.0000 C   0  0  0  0  0  0  0  0  0  0  0  0
    5.1350   -1.0429    0.0000 C   0  0  0  0  0  0  0  0  0  0  0  0
    4.2690   -0.5429    0.0000 C   0  0  0  0  0  0  0  0  0  0  0  0
   11.1972    0.4571    0.0000 C   0  0  0  0  0  0  0  0  0  0  0  0
    4.2690    0.4571    0.0000 C   0  0  0  0  0  0  0  0  0  0  0  0
    3.4030    0.9571    0.0000 C   0  0  0  0  0  0  0  0  0  0  0  0
   12.0632    0.9571    0.0000 C   0  0  0  0  0  0  0  0  0  0  0  0
    3.4030    1.9571    0.0000 C   0  0  0  0  0  0  0  0  0  0  0  0
   15.5273    1.9571    0.0000 C   0  0  0  0  0  0  0  0  0  0  0  0
   16.3933    2.4571    0.0000 C   0  0  0  0  0  0  0  0  0  0  0  0
    4.2690    5.4571    0.0000 C   0  0  0  0  0  0  0  0  0  0  0  0
    4.2690    6.4571    0.0000 C   0  0  0  0  0  0  0  0  0  0  0  0
   14.6613    2.4571    0.0000 C   0  0  0  0  0  0  0  0  0  0  0  0
    3.4030    4.9571    0.0000 C   0  0  0  0  0  0  0  0  0  0  0  0
   17.2594    1.9571    0.0000 C   0  0  0  0  0  0  0  0  0  0  0  0
    5.1350    6.9571    0.0000 C   0  0  0  0  0  0  0  0  0  0  0  0
   13.7953    1.9571    0.0000 C   0  0  0  0  0  0  0  0  0  0  0  0
   12.0632    1.9571    0.0000 C   0  0  0  0  0  0  0  0  0  0  0  0
    3.4030    3.9571    0.0000 C   0  0  0  0  0  0  0  0  0  0  0  0
   18.1254    2.4571    0.0000 C   0  0  0  0  0  0  0  0  0  0  0  0
    5.1350    7.9571    0.0000 C   0  0  0  0  0  0  0  0  0  0  0  0
    2.5369    2.4571    0.0000 C   0  0  0  0  0  0  0  0  0  0  0  0
   12.9292    2.4571    0.0000 C   0  0  0  0  0  0  0  0  0  0  0  0
    2.5369    3.4571    0.0000 C   0  0  0  0  0  0  0  0  0  0  0  0
   18.9914    1.9571    0.0000 C   0  0  0  0  0  0  0  0  0  0  0  0
    6.0010    8.4571    0.0000 C   0  0  0  0  0  0  0  0  0  0  0  0
   19.8574    2.4571    0.0000 C   0  0  0  0  0  0  0  0  0  0  0  0
    6.0010    9.4571    0.0000 C   0  0  0  0  0  0  0  0  0  0  0  0
    8.4904   -6.1570    0.0000 H   0  0  0  0  0  0  0  0  0  0  0  0
    6.8271   -6.5183    0.0000 H   0  0  0  0  0  0  0  0  0  0  0  0
    7.5146   -8.6341    0.0000 H   0  0  0  0  0  0  0  0  0  0  0  0
    7.7331   -4.9229    0.0000 H   0  0  0  0  0  0  0  0  0  0  0  0
    8.1683   -8.6983    0.0000 H   0  0  0  0  0  0  0  0  0  0  0  0
    8.8395   -8.2106    0.0000 H   0  0  0  0  0  0  0  0  0  0  0  0
    6.2565   -4.9352    0.0000 H   0  0  0  0  0  0  0  0  0  0  0  0
    6.6550   -5.6255    0.0000 H   0  0  0  0  0  0  0  0  0  0  0  0
    5.5123   -7.2365    0.0000 H   0  0  0  0  0  0  0  0  0  0  0  0
    6.8975   -9.4571    0.0000 H   0  0  0  0  0  0  0  0  0  0  0  0
    9.6772   -4.1255    0.0000 H   0  0  0  0  0  0  0  0  0  0  0  0
   10.0757   -3.4352    0.0000 H   0  0  0  0  0  0  0  0  0  0  0  0
    9.2531   -1.9603    0.0000 H   0  0  0  0  0  0  0  0  0  0  0  0
    8.8546   -2.6505    0.0000 H   0  0  0  0  0  0  0  0  0  0  0  0
   10.5432   -2.6255    0.0000 H   0  0  0  0  0  0  0  0  0  0  0  0
   10.9417   -1.9352    0.0000 H   0  0  0  0  0  0  0  0  0  0  0  0
   10.1191   -0.4603    0.0000 H   0  0  0  0  0  0  0  0  0  0  0  0
    9.7206   -1.1505    0.0000 H   0  0  0  0  0  0  0  0  0  0  0  0
    6.6116   -2.6505    0.0000 H   0  0  0  0  0  0  0  0  0  0  0  0
    6.2131   -1.9603    0.0000 H   0  0  0  0  0  0  0  0  0  0  0  0
    4.5244   -1.9352    0.0000 H   0  0  0  0  0  0  0  0  0  0  0  0
    4.9230   -2.6255    0.0000 H   0  0  0  0  0  0  0  0  0  0  0  0
   11.4092   -1.1255    0.0000 H   0  0  0  0  0  0  0  0  0  0  0  0
   11.8078   -0.4352    0.0000 H   0  0  0  0  0  0  0  0  0  0  0  0
    5.7456   -1.1505    0.0000 H   0  0  0  0  0  0  0  0  0  0  0  0
    5.3471   -0.4603    0.0000 H   0  0  0  0  0  0  0  0  0  0  0  0
    3.6584   -0.4352    0.0000 H   0  0  0  0  0  0  0  0  0  0  0  0
    4.0569   -1.1255    0.0000 H   0  0  0  0  0  0  0  0  0  0  0  0
   10.9851    1.0397    0.0000 H   0  0  0  0  0  0  0  0  0  0  0  0
   10.5866    0.3495    0.0000 H   0  0  0  0  0  0  0  0  0  0  0  0
    4.8796    0.3495    0.0000 H   0  0  0  0  0  0  0  0  0  0  0  0
    4.4810    1.0397    0.0000 H   0  0  0  0  0  0  0  0  0  0  0  0
    2.7924    1.0648    0.0000 H   0  0  0  0  0  0  0  0  0  0  0  0
    3.1909    0.3745    0.0000 H   0  0  0  0  0  0  0  0  0  0  0  0
   12.2753    0.3745    0.0000 H   0  0  0  0  0  0  0  0  0  0  0  0
   12.6738    1.0648    0.0000 H   0  0  0  0  0  0  0  0  0  0  0  0
    4.0135    1.8495    0.0000 H   0  0  0  0  0  0  0  0  0  0  0  0
    3.6150    2.5397    0.0000 H   0  0  0  0  0  0  0  0  0  0  0  0
   15.1288    1.4822    0.0000 H   0  0  0  0  0  0  0  0  0  0  0  0
   15.9258    1.4822    0.0000 H   0  0  0  0  0  0  0  0  0  0  0  0
   16.7919    2.9321    0.0000 H   0  0  0  0  0  0  0  0  0  0  0  0
   15.9948    2.9321    0.0000 H   0  0  0  0  0  0  0  0  0  0  0  0
    4.4810    4.8745    0.0000 H   0  0  0  0  0  0  0  0  0  0  0  0
    4.8796    5.5648    0.0000 H   0  0  0  0  0  0  0  0  0  0  0  0
    4.0569    7.0397    0.0000 H   0  0  0  0  0  0  0  0  0  0  0  0
    3.6584    6.3495    0.0000 H   0  0  0  0  0  0  0  0  0  0  0  0
   15.0598    2.9321    0.0000 H   0  0  0  0  0  0  0  0  0  0  0  0
   14.2628    2.9321    0.0000 H   0  0  0  0  0  0  0  0  0  0  0  0
    3.1909    5.5397    0.0000 H   0  0  0  0  0  0  0  0  0  0  0  0
    2.7924    4.8495    0.0000 H   0  0  0  0  0  0  0  0  0  0  0  0
   16.8608    1.4822    0.0000 H   0  0  0  0  0  0  0  0  0  0  0  0
   17.6579    1.4822    0.0000 H   0  0  0  0  0  0  0  0  0  0  0  0
    5.3471    6.3745    0.0000 H   0  0  0  0  0  0  0  0  0  0  0  0
    5.7456    7.0648    0.0000 H   0  0  0  0  0  0  0  0  0  0  0  0
   13.3967    1.4822    0.0000 H   0  0  0  0  0  0  0  0  0  0  0  0
   14.1938    1.4822    0.0000 H   0  0  0  0  0  0  0  0  0  0  0  0
   11.5263    2.2671    0.0000 H   0  0  0  0  0  0  0  0  0  0  0  0
    3.6150    3.3745    0.0000 H   0  0  0  0  0  0  0  0  0  0  0  0
    4.0135    4.0648    0.0000 H   0  0  0  0  0  0  0  0  0  0  0  0
   18.5239    2.9321    0.0000 H   0  0  0  0  0  0  0  0  0  0  0  0
   17.7269    2.9321    0.0000 H   0  0  0  0  0  0  0  0  0  0  0  0
    4.9230    8.5397    0.0000 H   0  0  0  0  0  0  0  0  0  0  0  0
    4.5244    7.8495    0.0000 H   0  0  0  0  0  0  0  0  0  0  0  0
    2.0000    2.1471    0.0000 H   0  0  0  0  0  0  0  0  0  0  0  0
   12.9292    3.0771    0.0000 H   0  0  0  0  0  0  0  0  0  0  0  0
    2.0000    3.7671    0.0000 H   0  0  0  0  0  0  0  0  0  0  0  0
   18.5929    1.4822    0.0000 H   0  0  0  0  0  0  0  0  0  0  0  0
   19.3899    1.4822    0.0000 H   0  0  0  0  0  0  0  0  0  0  0  0
    6.2131    7.8745    0.0000 H   0  0  0  0  0  0  0  0  0  0  0  0
    6.6116    8.5648    0.0000 H   0  0  0  0  0  0  0  0  0  0  0  0
   20.1674    1.9202    0.0000 H   0  0  0  0  0  0  0  0  0  0  0  0
   20.3944    2.7671    0.0000 H   0  0  0  0  0  0  0  0  0  0  0  0
   19.5474    2.9941    0.0000 H   0  0  0  0  0  0  0  0  0  0  0  0
    6.6210    9.4571    0.0000 H   0  0  0  0  0  0  0  0  0  0  0  0
    6.0010   10.0771    0.0000 H   0  0  0  0  0  0  0  0  0  0  0  0
    5.3810    9.4571    0.0000 H   0  0  0  0  0  0  0  0  0  0  0  0
  1  8  1  0  0  0  0
  1 12  1  0  0  0  0
  9  2  1  1  0  0  0
  2 58  1  0  0  0  0
 11  3  1  1  0  0  0
  3 14  1  0  0  0  0
 10  4  1  6  0  0  0
  4 59  1  0  0  0  0
  5 13  1  0  0  0  0
  5 18  1  0  0  0  0
  6 14  2  0  0  0  0
  7 18  2  0  0  0  0
  8  9  1  0  0  0  0
  8 11  1  0  0  0  0
  8 50  1  6  0  0  0
  9 10  1  0  0  0  0
  9 51  1  0  0  0  0
 10 12  1  0  0  0  0
 10 52  1  0  0  0  0
 11 13  1  0  0  0  0
 11 53  1  0  0  0  0
 12 54  1  0  0  0  0
 12 55  1  0  0  0  0
 13 56  1  0  0  0  0
 13 57  1  0  0  0  0
 14 15  1  0  0  0  0
 15 16  1  0  0  0  0
 15 60  1  0  0  0  0
 15 61  1  0  0  0  0
 16 17  1  0  0  0  0
 16 62  1  0  0  0  0
 16 63  1  0  0  0  0
 17 19  1  0  0  0  0
 17 64  1  0  0  0  0
 17 65  1  0  0  0  0
 18 20  1  0  0  0  0
 19 22  1  0  0  0  0
 19 66  1  0  0  0  0
 19 67  1  0  0  0  0
 20 21  1  0  0  0  0
 20 68  1  0  0  0  0
 20 69  1  0  0  0  0
 21 23  1  0  0  0  0
 21 70  1  0  0  0  0
 21 71  1  0  0  0  0
 22 25  1  0  0  0  0
 22 72  1  0  0  0  0
 22 73  1  0  0  0  0
 23 24  1  0  0  0  0
 23 74  1  0  0  0  0
 23 75  1  0  0  0  0
 24 26  1  0  0  0  0
 24 76  1  0  0  0  0
 24 77  1  0  0  0  0
 25 28  1  0  0  0  0
 25 78  1  0  0  0  0
 25 79  1  0  0  0  0
 26 27  1  0  0  0  0
 26 80  1  0  0  0  0
 26 81  1  0  0  0  0
 27 29  1  0  0  0  0
 27 82  1  0  0  0  0
 27 83  1  0  0  0  0
 28 39  1  0  0  0  0
 28 84  1  0  0  0  0
 28 85  1  0  0  0  0
 29 43  1  0  0  0  0
 29 86  1  0  0  0  0
 29 87  1  0  0  0  0
 30 31  1  0  0  0  0
 30 34  1  0  0  0  0
 30 88  1  0  0  0  0
 30 89  1  0  0  0  0
 31 36  1  0  0  0  0
 31 90  1  0  0  0  0
 31 91  1  0  0  0  0
 32 33  1  0  0  0  0
 32 35  1  0  0  0  0
 32 92  1  0  0  0  0
 32 93  1  0  0  0  0
 33 37  1  0  0  0  0
 33 94  1  0  0  0  0
 33 95  1  0  0  0  0
 34 38  1  0  0  0  0
 34 96  1  0  0  0  0
 34 97  1  0  0  0  0
 35 40  1  0  0  0  0
 35 98  1  0  0  0  0
 35 99  1  0  0  0  0
 36 41  1  0  0  0  0
 36100  1  0  0  0  0
 36101  1  0  0  0  0
 37 42  1  0  0  0  0
 37102  1  0  0  0  0
 37103  1  0  0  0  0
 38 44  1  0  0  0  0
 38104  1  0  0  0  0
 38105  1  0  0  0  0
 39 44  2  0  0  0  0
 39106  1  0  0  0  0
 40 45  1  0  0  0  0
 40107  1  0  0  0  0
 40108  1  0  0  0  0
 41 46  1  0  0  0  0
 41109  1  0  0  0  0
 41110  1  0  0  0  0
 42 47  1  0  0  0  0
 42111  1  0  0  0  0
 42112  1  0  0  0  0
 43 45  2  0  0  0  0
 43113  1  0  0  0  0
 44114  1  0  0  0  0
 45115  1  0  0  0  0
 46 48  1  0  0  0  0
 46116  1  0  0  0  0
 46117  1  0  0  0  0
 47 49  1  0  0  0  0
 47118  1  0  0  0  0
 47119  1  0  0  0  0
 48120  1  0  0  0  0
 48121  1  0  0  0  0
 48122  1  0  0  0  0
 49123  1  0  0  0  0
 49124  1  0  0  0  0
 49125  1  0  0  0  0
M  END
> <PUBCHEM_COMPOUND_CID>
22833309

> <PUBCHEM_COMPOUND_CANONICALIZED>
1

> <PUBCHEM_CACTVS_COMPLEXITY>
826

> <PUBCHEM_CACTVS_HBOND_ACCEPTOR>
7

> <PUBCHEM_CACTVS_HBOND_DONOR>
2

> <PUBCHEM_CACTVS_ROTATABLE_BOND>
36

> <PUBCHEM_CACTVS_SUBSKEYS>
AAADcfB8OAAAAAAAAAAAAAAAAAAAASAAAAAAAAAAAAAAAAAAAAAAGgAACAAACBSggAICCAAABgCIACDSCAAAAAAgAAAICAEAAAgBEBIAAQACQAAFgAALAAPI6KyAAAAAAAAAAAAAAAAAAAAAAAAAAAAAAA==

> <PUBCHEM_IUPAC_OPENEYE_NAME>
[(2R)-2-[(2S,3R,4S)-3,4-dihydroxytetrahydrofuran-2-yl]-2-[(Z)-octadec-9-enoyl]oxy-ethyl] (Z)-octadec-9-enoate

> <PUBCHEM_IUPAC_CAS_NAME>
(Z)-9-octadecenoic acid [(2R)-2-[(2S,3R,4S)-3,4-dihydroxy-2-oxolanyl]-2-[(Z)-1-oxooctadec-9-enoxy]ethyl] ester

> <PUBCHEM_IUPAC_NAME_MARKUP>
[(2<I>R</I>)-2-[(2<I>S</I>,3<I>R</I>,4<I>S</I>)-3,4-dihydroxyoxolan-2-yl]-2-[(<I>Z</I>)-octadec-9-enoyl]oxyethyl] (<I>Z</I>)-octadec-9-enoate

> <PUBCHEM_IUPAC_NAME>
[(2R)-2-[(2S,3R,4S)-3,4-dihydroxyoxolan-2-yl]-2-[(Z)-octadec-9-enoyl]oxyethyl] (Z)-octadec-9-enoate

> <PUBCHEM_IUPAC_SYSTEMATIC_NAME>
[(2R)-2-[(2S,3R,4S)-3,4-bis(oxidanyl)oxolan-2-yl]-2-[(Z)-octadec-9-enoyl]oxy-ethyl] (Z)-octadec-9-enoate

> <PUBCHEM_IUPAC_TRADITIONAL_NAME>
(Z)-octadec-9-enoic acid [(2R)-2-[(2S,3R,4S)-3,4-dihydroxytetrahydrofuran-2-yl]-2-[(Z)-octadec-9-enoyl]oxy-ethyl] ester

> <PUBCHEM_IUPAC_INCHI>
InChI=1S/C42H76O7/c1-3-5-7-9-11-13-15-17-19-21-23-25-27-29-31-33-39(44)47-36-38(42-41(46)37(43)35-48-42)49-40(45)34-32-30-28-26-24-22-20-18-16-14-12-10-8-6-4-2/h17-20,37-38,41-43,46H,3-16,21-36H2,1-2H3/b19-17-,20-18-/t37-,38+,41+,42+/m0/s1

> <PUBCHEM_IUPAC_INCHIKEY>
TTZKGYULRVDFJJ-GIVMLJSASA-N

> <PUBCHEM_XLOGP3_AA>
13.5

> <PUBCHEM_EXACT_MASS>
692.55910476

> <PUBCHEM_MOLECULAR_FORMULA>
C42H76O7

> <PUBCHEM_MOLECULAR_WEIGHT>
693.0

> <PUBCHEM_SMILES>
CCCCCCCC/C=C\CCCCCCCC(=O)OC[C@H]([C@@H]1[C@@H]([C@H](CO1)O)O)OC(=O)CCCCCCC/C=C\CCCCCCCC

> <PUBCHEM_OPENEYE_CAN_SMILES>
CCCCCCCCC=CCCCCCCCC(=O)OCC(C1C(C(CO1)O)O)OC(=O)CCCCCCCC=CCCCCCCCC

> <PUBCHEM_OPENEYE_ISO_SMILES>
CCCCCCCC/C=C\CCCCCCCC(=O)OC[C@H]([C@@H]1[C@@H]([C@H](CO1)O)O)OC(=O)CCCCCCC/C=C\CCCCCCCC

> <PUBCHEM_CACTVS_TPSA>
102

> <PUBCHEM_MONOISOTOPIC_WEIGHT>
692.55910476

> <PUBCHEM_TOTAL_CHARGE>
0

> <PUBCHEM_HEAVY_ATOM_COUNT>
49

> <PUBCHEM_ATOM_DEF_STEREO_COUNT>
4

> <PUBCHEM_ATOM_UDEF_STEREO_COUNT>
0

> <PUBCHEM_BOND_DEF_STEREO_COUNT>
2

> <PUBCHEM_BOND_UDEF_STEREO_COUNT>
0

> <PUBCHEM_ISOTOPIC_ATOM_COUNT>
0

> <PUBCHEM_COMPONENT_COUNT>
1

> <PUBCHEM_CACTVS_TAUTO_COUNT>
-1

> <PUBCHEM_COORDINATE_TYPE>
1
5
255

> <PUBCHEM_BONDANNOTATIONS>
9  2  5
11  3  5
10  4  6
8  50  6

$$$$
