22833337
  -OEChem-04042505592D

101100  0     0  0  0  0  0  0999 V2000
   11.5263   -4.0131    0.0000 Sn  0  0  0  0  0  0  0  0  0  0  0  0
   12.3923   -3.5131    0.0000 S   0  0  0  0  0  0  0  0  0  0  0  0
   10.6603   -4.5131    0.0000 S   0  0  0  0  0  0  0  0  0  0  0  0
   11.0263   -3.1471    0.0000 S   0  0  0  0  0  0  0  0  0  0  0  0
   14.9904   -4.0131    0.0000 O   0  0  0  0  0  0  0  0  0  0  0  0
    8.0622   -4.0131    0.0000 O   0  0  0  0  0  0  0  0  0  0  0  0
   11.5263   -0.5490    0.0000 O   0  0  0  0  0  0  0  0  0  0  0  0
   14.1244   -2.5131    0.0000 O   0  0  0  0  0  0  0  0  0  0  0  0
    8.9282   -5.5131    0.0000 O   0  0  0  0  0  0  0  0  0  0  0  0
   10.0263   -1.4151    0.0000 O   0  0  0  0  0  0  0  0  0  0  0  0
   19.3205   -3.5131    0.0000 C   0  0  0  0  0  0  0  0  0  0  0  0
    3.7320   -4.5131    0.0000 C   0  0  0  0  0  0  0  0  0  0  0  0
   11.0263    3.7811    0.0000 C   0  0  0  0  0  0  0  0  0  0  0  0
   20.1865   -4.0131    0.0000 C   0  0  0  0  0  0  0  0  0  0  0  0
    2.8660   -4.0131    0.0000 C   0  0  0  0  0  0  0  0  0  0  0  0
   11.5263    4.6471    0.0000 C   0  0  0  0  0  0  0  0  0  0  0  0
   18.4545   -4.0131    0.0000 C   0  0  0  0  0  0  0  0  0  0  0  0
    4.5981   -4.0131    0.0000 C   0  0  0  0  0  0  0  0  0  0  0  0
   11.5263    2.9151    0.0000 C   0  0  0  0  0  0  0  0  0  0  0  0
   17.5885   -3.5131    0.0000 C   0  0  0  0  0  0  0  0  0  0  0  0
    5.4641   -4.5131    0.0000 C   0  0  0  0  0  0  0  0  0  0  0  0
   11.0263    2.0490    0.0000 C   0  0  0  0  0  0  0  0  0  0  0  0
   16.7224   -4.0131    0.0000 C   0  0  0  0  0  0  0  0  0  0  0  0
    6.3301   -4.0131    0.0000 C   0  0  0  0  0  0  0  0  0  0  0  0
   11.5263    1.1830    0.0000 C   0  0  0  0  0  0  0  0  0  0  0  0
   21.0526   -3.5131    0.0000 C   0  0  0  0  0  0  0  0  0  0  0  0
   20.1865   -5.0131    0.0000 C   0  0  0  0  0  0  0  0  0  0  0  0
    2.0000   -4.5131    0.0000 C   0  0  0  0  0  0  0  0  0  0  0  0
    2.8660   -3.0131    0.0000 C   0  0  0  0  0  0  0  0  0  0  0  0
   11.0263    5.5131    0.0000 C   0  0  0  0  0  0  0  0  0  0  0  0
   12.5263    4.6471    0.0000 C   0  0  0  0  0  0  0  0  0  0  0  0
   15.8564   -3.5131    0.0000 C   0  0  0  0  0  0  0  0  0  0  0  0
    7.1962   -4.5131    0.0000 C   0  0  0  0  0  0  0  0  0  0  0  0
   11.0263    0.3170    0.0000 C   0  0  0  0  0  0  0  0  0  0  0  0
   14.1244   -3.5131    0.0000 C   0  0  0  0  0  0  0  0  0  0  0  0
    8.9282   -4.5131    0.0000 C   0  0  0  0  0  0  0  0  0  0  0  0
   11.0263   -1.4151    0.0000 C   0  0  0  0  0  0  0  0  0  0  0  0
   13.2583   -4.0131    0.0000 C   0  0  0  0  0  0  0  0  0  0  0  0
    9.7942   -4.0131    0.0000 C   0  0  0  0  0  0  0  0  0  0  0  0
   11.5263   -2.2811    0.0000 C   0  0  0  0  0  0  0  0  0  0  0  0
   12.0263   -4.8792    0.0000 C   0  0  0  0  0  0  0  0  0  0  0  0
   19.7190   -3.0382    0.0000 H   0  0  0  0  0  0  0  0  0  0  0  0
   18.9220   -3.0382    0.0000 H   0  0  0  0  0  0  0  0  0  0  0  0
    3.3335   -4.9881    0.0000 H   0  0  0  0  0  0  0  0  0  0  0  0
    4.1306   -4.9881    0.0000 H   0  0  0  0  0  0  0  0  0  0  0  0
   10.5513    4.1796    0.0000 H   0  0  0  0  0  0  0  0  0  0  0  0
   10.5513    3.3826    0.0000 H   0  0  0  0  0  0  0  0  0  0  0  0
   19.6496   -4.3231    0.0000 H   0  0  0  0  0  0  0  0  0  0  0  0
    2.8660   -4.6331    0.0000 H   0  0  0  0  0  0  0  0  0  0  0  0
   10.9063    4.6471    0.0000 H   0  0  0  0  0  0  0  0  0  0  0  0
   18.0560   -4.4881    0.0000 H   0  0  0  0  0  0  0  0  0  0  0  0
   18.8530   -4.4881    0.0000 H   0  0  0  0  0  0  0  0  0  0  0  0
    4.9966   -3.5382    0.0000 H   0  0  0  0  0  0  0  0  0  0  0  0
    4.1996   -3.5382    0.0000 H   0  0  0  0  0  0  0  0  0  0  0  0
   12.0012    2.5165    0.0000 H   0  0  0  0  0  0  0  0  0  0  0  0
   12.0012    3.3136    0.0000 H   0  0  0  0  0  0  0  0  0  0  0  0
   17.9870   -3.0382    0.0000 H   0  0  0  0  0  0  0  0  0  0  0  0
   17.1899   -3.0382    0.0000 H   0  0  0  0  0  0  0  0  0  0  0  0
    5.0656   -4.9881    0.0000 H   0  0  0  0  0  0  0  0  0  0  0  0
    5.8626   -4.9881    0.0000 H   0  0  0  0  0  0  0  0  0  0  0  0
   10.5513    2.4476    0.0000 H   0  0  0  0  0  0  0  0  0  0  0  0
   10.5513    1.6505    0.0000 H   0  0  0  0  0  0  0  0  0  0  0  0
   16.3239   -4.4881    0.0000 H   0  0  0  0  0  0  0  0  0  0  0  0
   17.1210   -4.4881    0.0000 H   0  0  0  0  0  0  0  0  0  0  0  0
    6.7287   -3.5382    0.0000 H   0  0  0  0  0  0  0  0  0  0  0  0
    5.9316   -3.5382    0.0000 H   0  0  0  0  0  0  0  0  0  0  0  0
   12.0012    0.7845    0.0000 H   0  0  0  0  0  0  0  0  0  0  0  0
   12.0012    1.5815    0.0000 H   0  0  0  0  0  0  0  0  0  0  0  0
   21.3626   -4.0501    0.0000 H   0  0  0  0  0  0  0  0  0  0  0  0
   21.5895   -3.2031    0.0000 H   0  0  0  0  0  0  0  0  0  0  0  0
   20.7426   -2.9762    0.0000 H   0  0  0  0  0  0  0  0  0  0  0  0
   19.5665   -5.0131    0.0000 H   0  0  0  0  0  0  0  0  0  0  0  0
   20.1865   -5.6331    0.0000 H   0  0  0  0  0  0  0  0  0  0  0  0
   20.8065   -5.0131    0.0000 H   0  0  0  0  0  0  0  0  0  0  0  0
    1.6900   -3.9762    0.0000 H   0  0  0  0  0  0  0  0  0  0  0  0
    1.4631   -4.8231    0.0000 H   0  0  0  0  0  0  0  0  0  0  0  0
    2.3100   -5.0501    0.0000 H   0  0  0  0  0  0  0  0  0  0  0  0
    3.4860   -3.0131    0.0000 H   0  0  0  0  0  0  0  0  0  0  0  0
    2.8660   -2.3931    0.0000 H   0  0  0  0  0  0  0  0  0  0  0  0
    2.2460   -3.0131    0.0000 H   0  0  0  0  0  0  0  0  0  0  0  0
   11.5632    5.8231    0.0000 H   0  0  0  0  0  0  0  0  0  0  0  0
   10.7163    6.0501    0.0000 H   0  0  0  0  0  0  0  0  0  0  0  0
   10.4893    5.2031    0.0000 H   0  0  0  0  0  0  0  0  0  0  0  0
   12.5263    4.0271    0.0000 H   0  0  0  0  0  0  0  0  0  0  0  0
   13.1463    4.6471    0.0000 H   0  0  0  0  0  0  0  0  0  0  0  0
   12.5263    5.2671    0.0000 H   0  0  0  0  0  0  0  0  0  0  0  0
   16.2549   -3.0382    0.0000 H   0  0  0  0  0  0  0  0  0  0  0  0
   15.4579   -3.0382    0.0000 H   0  0  0  0  0  0  0  0  0  0  0  0
    6.7976   -4.9881    0.0000 H   0  0  0  0  0  0  0  0  0  0  0  0
    7.5947   -4.9881    0.0000 H   0  0  0  0  0  0  0  0  0  0  0  0
   10.5513    0.7155    0.0000 H   0  0  0  0  0  0  0  0  0  0  0  0
   10.5513   -0.0815    0.0000 H   0  0  0  0  0  0  0  0  0  0  0  0
   12.8598   -4.4881    0.0000 H   0  0  0  0  0  0  0  0  0  0  0  0
   13.6569   -4.4881    0.0000 H   0  0  0  0  0  0  0  0  0  0  0  0
   10.1928   -3.5382    0.0000 H   0  0  0  0  0  0  0  0  0  0  0  0
    9.3957   -3.5382    0.0000 H   0  0  0  0  0  0  0  0  0  0  0  0
   12.0012   -2.6796    0.0000 H   0  0  0  0  0  0  0  0  0  0  0  0
   12.0012   -1.8826    0.0000 H   0  0  0  0  0  0  0  0  0  0  0  0
   11.4893   -5.1892    0.0000 H   0  0  0  0  0  0  0  0  0  0  0  0
   12.3363   -5.4161    0.0000 H   0  0  0  0  0  0  0  0  0  0  0  0
   12.5632   -4.5692    0.0000 H   0  0  0  0  0  0  0  0  0  0  0  0
  1  2  1  0  0  0  0
  1  3  1  0  0  0  0
  1  4  1  0  0  0  0
  1 41  1  0  0  0  0
  2 38  1  0  0  0  0
  3 39  1  0  0  0  0
  4 40  1  0  0  0  0
  5 32  1  0  0  0  0
  5 35  1  0  0  0  0
  6 33  1  0  0  0  0
  6 36  1  0  0  0  0
  7 34  1  0  0  0  0
  7 37  1  0  0  0  0
  8 35  2  0  0  0  0
  9 36  2  0  0  0  0
 10 37  2  0  0  0  0
 11 14  1  0  0  0  0
 11 17  1  0  0  0  0
 11 42  1  0  0  0  0
 11 43  1  0  0  0  0
 12 15  1  0  0  0  0
 12 18  1  0  0  0  0
 12 44  1  0  0  0  0
 12 45  1  0  0  0  0
 13 16  1  0  0  0  0
 13 19  1  0  0  0  0
 13 46  1  0  0  0  0
 13 47  1  0  0  0  0
 14 26  1  0  0  0  0
 14 27  1  0  0  0  0
 14 48  1  0  0  0  0
 15 28  1  0  0  0  0
 15 29  1  0  0  0  0
 15 49  1  0  0  0  0
 16 30  1  0  0  0  0
 16 31  1  0  0  0  0
 16 50  1  0  0  0  0
 17 20  1  0  0  0  0
 17 51  1  0  0  0  0
 17 52  1  0  0  0  0
 18 21  1  0  0  0  0
 18 53  1  0  0  0  0
 18 54  1  0  0  0  0
 19 22  1  0  0  0  0
 19 55  1  0  0  0  0
 19 56  1  0  0  0  0
 20 23  1  0  0  0  0
 20 57  1  0  0  0  0
 20 58  1  0  0  0  0
 21 24  1  0  0  0  0
 21 59  1  0  0  0  0
 21 60  1  0  0  0  0
 22 25  1  0  0  0  0
 22 61  1  0  0  0  0
 22 62  1  0  0  0  0
 23 32  1  0  0  0  0
 23 63  1  0  0  0  0
 23 64  1  0  0  0  0
 24 33  1  0  0  0  0
 24 65  1  0  0  0  0
 24 66  1  0  0  0  0
 25 34  1  0  0  0  0
 25 67  1  0  0  0  0
 25 68  1  0  0  0  0
 26 69  1  0  0  0  0
 26 70  1  0  0  0  0
 26 71  1  0  0  0  0
 27 72  1  0  0  0  0
 27 73  1  0  0  0  0
 27 74  1  0  0  0  0
 28 75  1  0  0  0  0
 28 76  1  0  0  0  0
 28 77  1  0  0  0  0
 29 78  1  0  0  0  0
 29 79  1  0  0  0  0
 29 80  1  0  0  0  0
 30 81  1  0  0  0  0
 30 82  1  0  0  0  0
 30 83  1  0  0  0  0
 31 84  1  0  0  0  0
 31 85  1  0  0  0  0
 31 86  1  0  0  0  0
 32 87  1  0  0  0  0
 32 88  1  0  0  0  0
 33 89  1  0  0  0  0
 33 90  1  0  0  0  0
 34 91  1  0  0  0  0
 34 92  1  0  0  0  0
 35 38  1  0  0  0  0
 36 39  1  0  0  0  0
 37 40  1  0  0  0  0
 38 93  1  0  0  0  0
 38 94  1  0  0  0  0
 39 95  1  0  0  0  0
 39 96  1  0  0  0  0
 40 97  1  0  0  0  0
 40 98  1  0  0  0  0
 41 99  1  0  0  0  0
 41100  1  0  0  0  0
 41101  1  0  0  0  0
M  END
> <PUBCHEM_COMPOUND_CID>
22833337

> <PUBCHEM_COMPOUND_CANONICALIZED>
1

> <PUBCHEM_CACTVS_COMPLEXITY>
602

> <PUBCHEM_CACTVS_HBOND_ACCEPTOR>
9

> <PUBCHEM_CACTVS_HBOND_DONOR>
0

> <PUBCHEM_CACTVS_ROTATABLE_BOND>
30

> <PUBCHEM_CACTVS_SUBSKEYS>
AAADcfB4OABgAAAAAACAAAAAAAAAAAAAAAAAAAAAAAAAAAAAAAAAGgQAAAAADQCkwAKCCAAABAAIAACQCAAAAAAAAAAAAAAAAAAAAAIAAAACAAAEAAAAAAGAwGAMAAAAAAAAAAAAAAAAAAAAAAAAAAAAAA==

> <PUBCHEM_IUPAC_OPENEYE_NAME>
6-methylheptyl 2-[methyl-bis[[2-(6-methylheptoxy)-2-oxo-ethyl]sulfanyl]stannyl]sulfanylacetate

> <PUBCHEM_IUPAC_CAS_NAME>
2-[[methyl-bis[[2-(6-methylheptoxy)-2-oxoethyl]thio]stannyl]thio]acetic acid 6-methylheptyl ester

> <PUBCHEM_IUPAC_NAME_MARKUP>
6-methylheptyl 2-[methyl-bis[[2-(6-methylheptoxy)-2-oxoethyl]sulfanyl]stannyl]sulfanylacetate

> <PUBCHEM_IUPAC_NAME>
6-methylheptyl 2-[methyl-bis[[2-(6-methylheptoxy)-2-oxoethyl]sulfanyl]stannyl]sulfanylacetate

> <PUBCHEM_IUPAC_SYSTEMATIC_NAME>
6-methylheptyl 2-[methyl-bis[[2-(6-methylheptoxy)-2-oxidanylidene-ethyl]sulfanyl]stannyl]sulfanylethanoate

> <PUBCHEM_IUPAC_TRADITIONAL_NAME>
2-[[bis[[2-keto-2-(6-methylheptoxy)ethyl]thio]-methyl-stannyl]thio]acetic acid 6-methylheptyl ester

> <PUBCHEM_IUPAC_INCHI>
InChI=1S/3C10H20O2S.CH3.Sn/c3*1-9(2)6-4-3-5-7-12-10(11)8-13;;/h3*9,13H,3-8H2,1-2H3;1H3;/q;;;;+3/p-3

> <PUBCHEM_IUPAC_INCHIKEY>
NIXLJQORAUOBAU-UHFFFAOYSA-K

> <PUBCHEM_EXACT_MASS>
744.257406

> <PUBCHEM_MOLECULAR_FORMULA>
C31H60O6S3Sn

> <PUBCHEM_MOLECULAR_WEIGHT>
743.7

> <PUBCHEM_SMILES>
CC(C)CCCCCOC(=O)CS[Sn](C)(SCC(=O)OCCCCCC(C)C)SCC(=O)OCCCCCC(C)C

> <PUBCHEM_OPENEYE_CAN_SMILES>
CC(C)CCCCCOC(=O)CS[Sn](C)(SCC(=O)OCCCCCC(C)C)SCC(=O)OCCCCCC(C)C

> <PUBCHEM_OPENEYE_ISO_SMILES>
CC(C)CCCCCOC(=O)CS[Sn](C)(SCC(=O)OCCCCCC(C)C)SCC(=O)OCCCCCC(C)C

> <PUBCHEM_CACTVS_TPSA>
155

> <PUBCHEM_MONOISOTOPIC_WEIGHT>
744.257406

> <PUBCHEM_TOTAL_CHARGE>
0

> <PUBCHEM_HEAVY_ATOM_COUNT>
41

> <PUBCHEM_ATOM_DEF_STEREO_COUNT>
0

> <PUBCHEM_ATOM_UDEF_STEREO_COUNT>
0

> <PUBCHEM_BOND_DEF_STEREO_COUNT>
0

> <PUBCHEM_BOND_UDEF_STEREO_COUNT>
0

> <PUBCHEM_ISOTOPIC_ATOM_COUNT>
0

> <PUBCHEM_COMPONENT_COUNT>
1

> <PUBCHEM_CACTVS_TAUTO_COUNT>
-1

> <PUBCHEM_COORDINATE_TYPE>
1
5
255

$$$$
