23668192
  -OEChem-04042512282D

 22 21  0     0  0  0  0  0  0999 V2000
    3.7320    1.2500    0.0000 S   0  0  0  0  0  0  0  0  0  0  0  0
    4.5981    2.7500    0.0000 Na  0  3  0  0  0  0  0  0  0  0  0  0
    3.7320    2.2500    0.0000 O   0  5  0  0  0  0  0  0  0  0  0  0
    4.7320    1.2500    0.0000 O   0  0  0  0  0  0  0  0  0  0  0  0
    2.7320    1.2500    0.0000 O   0  0  0  0  0  0  0  0  0  0  0  0
    2.8660   -1.2500    0.0000 C   0  0  0  0  0  0  0  0  0  0  0  0
    3.7320   -1.7500    0.0000 C   0  0  0  0  0  0  0  0  0  0  0  0
    3.7320    0.2500    0.0000 C   0  0  0  0  0  0  0  0  0  0  0  0
    2.8660   -0.2500    0.0000 C   0  0  0  0  0  0  0  0  0  0  0  0
    4.5981   -1.2500    0.0000 C   0  0  0  0  0  0  0  0  0  0  0  0
    4.5981   -0.2500    0.0000 C   0  0  0  0  0  0  0  0  0  0  0  0
    2.0000   -1.7500    0.0000 C   0  0  0  0  0  0  0  0  0  0  0  0
    3.7320   -2.7500    0.0000 C   0  0  0  0  0  0  0  0  0  0  0  0
    2.3291    0.0600    0.0000 H   0  0  0  0  0  0  0  0  0  0  0  0
    5.1350   -1.5600    0.0000 H   0  0  0  0  0  0  0  0  0  0  0  0
    5.1350    0.0600    0.0000 H   0  0  0  0  0  0  0  0  0  0  0  0
    1.6900   -1.2131    0.0000 H   0  0  0  0  0  0  0  0  0  0  0  0
    1.4631   -2.0600    0.0000 H   0  0  0  0  0  0  0  0  0  0  0  0
    2.3100   -2.2869    0.0000 H   0  0  0  0  0  0  0  0  0  0  0  0
    3.1120   -2.7500    0.0000 H   0  0  0  0  0  0  0  0  0  0  0  0
    3.7320   -3.3700    0.0000 H   0  0  0  0  0  0  0  0  0  0  0  0
    4.3520   -2.7500    0.0000 H   0  0  0  0  0  0  0  0  0  0  0  0
  1  3  1  0  0  0  0
  1  4  2  0  0  0  0
  1  5  2  0  0  0  0
  1  8  1  0  0  0  0
  6  7  2  0  0  0  0
  6  9  1  0  0  0  0
  6 12  1  0  0  0  0
  7 10  1  0  0  0  0
  7 13  1  0  0  0  0
  8  9  2  0  0  0  0
  8 11  1  0  0  0  0
  9 14  1  0  0  0  0
 10 11  2  0  0  0  0
 10 15  1  0  0  0  0
 11 16  1  0  0  0  0
 12 17  1  0  0  0  0
 12 18  1  0  0  0  0
 12 19  1  0  0  0  0
 13 20  1  0  0  0  0
 13 21  1  0  0  0  0
 13 22  1  0  0  0  0
M  CHG  2   2   1   3  -1
M  END
> <PUBCHEM_COMPOUND_CID>
23668192

> <PUBCHEM_COMPOUND_CANONICALIZED>
1

> <PUBCHEM_CACTVS_COMPLEXITY>
245

> <PUBCHEM_CACTVS_HBOND_ACCEPTOR>
3

> <PUBCHEM_CACTVS_HBOND_DONOR>
0

> <PUBCHEM_CACTVS_ROTATABLE_BOND>
1

> <PUBCHEM_CACTVS_SUBSKEYS>
AAADccBwMCBAAAAAAAAAAAAAAAAAAAAAAAAwAAAAAAAAAAABAAAAGAQAAAAADACAWAAyAYAAAAKAAiBCAHBCAEAgAAAIiBgAAIgIICKAERCAIAAggAAIiAcAgIAOkAAAgAAQAAAgAAEAACAAAAAAAAAAAA==

> <PUBCHEM_IUPAC_OPENEYE_NAME>
sodium;3,4-dimethylbenzenesulfonate

> <PUBCHEM_IUPAC_CAS_NAME>
sodium;3,4-dimethylbenzenesulfonate

> <PUBCHEM_IUPAC_NAME_MARKUP>
sodium;3,4-dimethylbenzenesulfonate

> <PUBCHEM_IUPAC_NAME>
sodium;3,4-dimethylbenzenesulfonate

> <PUBCHEM_IUPAC_SYSTEMATIC_NAME>
sodium;3,4-dimethylbenzenesulfonate

> <PUBCHEM_IUPAC_TRADITIONAL_NAME>
sodium;3,4-dimethylbesylate

> <PUBCHEM_IUPAC_INCHI>
InChI=1S/C8H10O3S.Na/c1-6-3-4-8(5-7(6)2)12(9,10)11;/h3-5H,1-2H3,(H,9,10,11);/q;+1/p-1

> <PUBCHEM_IUPAC_INCHIKEY>
QUCDWLYKDRVKMI-UHFFFAOYSA-M

> <PUBCHEM_EXACT_MASS>
208.01700960

> <PUBCHEM_MOLECULAR_FORMULA>
C8H9NaO3S

> <PUBCHEM_MOLECULAR_WEIGHT>
208.21

> <PUBCHEM_SMILES>
CC1=C(C=C(C=C1)S(=O)(=O)[O-])C.[Na+]

> <PUBCHEM_OPENEYE_CAN_SMILES>
CC1=C(C=C(C=C1)S(=O)(=O)[O-])C.[Na+]

> <PUBCHEM_OPENEYE_ISO_SMILES>
CC1=C(C=C(C=C1)S(=O)(=O)[O-])C.[Na+]

> <PUBCHEM_CACTVS_TPSA>
65.6

> <PUBCHEM_MONOISOTOPIC_WEIGHT>
208.01700960

> <PUBCHEM_TOTAL_CHARGE>
0

> <PUBCHEM_HEAVY_ATOM_COUNT>
13

> <PUBCHEM_ATOM_DEF_STEREO_COUNT>
0

> <PUBCHEM_ATOM_UDEF_STEREO_COUNT>
0

> <PUBCHEM_BOND_DEF_STEREO_COUNT>
0

> <PUBCHEM_BOND_UDEF_STEREO_COUNT>
0

> <PUBCHEM_ISOTOPIC_ATOM_COUNT>
0

> <PUBCHEM_COMPONENT_COUNT>
2

> <PUBCHEM_CACTVS_TAUTO_COUNT>
-1

> <PUBCHEM_NONSTANDARDBOND>
2  3  7

> <PUBCHEM_COORDINATE_TYPE>
1
5
255

> <PUBCHEM_BONDANNOTATIONS>
10  11  8
6  7  8
6  9  8
7  10  8
8  11  8
8  9  8

$$$$
