23663699
  -OEChem-04042512222D

 26 24  0     0  0  0  0  0  0999 V2000
    8.9282    0.0600    0.0000 K   0  3  0  0  0  0  0  0  0  0  0  0
    7.1962    0.0600    0.0000 S   0  0  0  0  0  0  0  0  0  0  0  0
    8.0622   -0.4400    0.0000 O   0  5  0  0  0  0  0  0  0  0  0  0
    7.6962    0.9260    0.0000 O   0  0  0  0  0  0  0  0  0  0  0  0
    6.6962   -0.8060    0.0000 O   0  0  0  0  0  0  0  0  0  0  0  0
    3.7320    1.0600    0.0000 O   0  0  0  0  0  0  0  0  0  0  0  0
    4.5981   -0.4400    0.0000 N   0  0  0  0  0  0  0  0  0  0  0  0
    5.4641    0.0600    0.0000 C   0  0  0  0  0  0  0  0  0  0  0  0
    6.3301    0.5600    0.0000 C   0  0  0  0  0  0  0  0  0  0  0  0
    4.9641    0.9260    0.0000 C   0  0  0  0  0  0  0  0  0  0  0  0
    5.9641   -0.8060    0.0000 C   0  0  0  0  0  0  0  0  0  0  0  0
    3.7320    0.0600    0.0000 C   0  0  0  0  0  0  0  0  0  0  0  0
    2.8660   -0.4400    0.0000 C   0  0  0  0  0  0  0  0  0  0  0  0
    2.0000    0.0600    0.0000 C   0  0  0  0  0  0  0  0  0  0  0  0
    6.7287    1.0350    0.0000 H   0  0  0  0  0  0  0  0  0  0  0  0
    5.9316    1.0350    0.0000 H   0  0  0  0  0  0  0  0  0  0  0  0
    5.5010    1.2360    0.0000 H   0  0  0  0  0  0  0  0  0  0  0  0
    4.6541    1.4630    0.0000 H   0  0  0  0  0  0  0  0  0  0  0  0
    4.4272    0.6160    0.0000 H   0  0  0  0  0  0  0  0  0  0  0  0
    5.4272   -1.1160    0.0000 H   0  0  0  0  0  0  0  0  0  0  0  0
    6.2741   -1.3430    0.0000 H   0  0  0  0  0  0  0  0  0  0  0  0
    6.5010   -0.4960    0.0000 H   0  0  0  0  0  0  0  0  0  0  0  0
    4.5981   -1.0600    0.0000 H   0  0  0  0  0  0  0  0  0  0  0  0
    2.8660   -1.0600    0.0000 H   0  0  0  0  0  0  0  0  0  0  0  0
    2.0000    0.6800    0.0000 H   0  0  0  0  0  0  0  0  0  0  0  0
    1.4631   -0.2500    0.0000 H   0  0  0  0  0  0  0  0  0  0  0  0
  2  3  1  0  0  0  0
  2  4  2  0  0  0  0
  2  5  2  0  0  0  0
  2  9  1  0  0  0  0
  6 12  2  0  0  0  0
  7  8  1  0  0  0  0
  7 12  1  0  0  0  0
  7 23  1  0  0  0  0
  8  9  1  0  0  0  0
  8 10  1  0  0  0  0
  8 11  1  0  0  0  0
  9 15  1  0  0  0  0
  9 16  1  0  0  0  0
 10 17  1  0  0  0  0
 10 18  1  0  0  0  0
 10 19  1  0  0  0  0
 11 20  1  0  0  0  0
 11 21  1  0  0  0  0
 11 22  1  0  0  0  0
 12 13  1  0  0  0  0
 13 14  2  0  0  0  0
 13 24  1  0  0  0  0
 14 25  1  0  0  0  0
 14 26  1  0  0  0  0
M  CHG  2   1   1   3  -1
M  END
> <PUBCHEM_COMPOUND_CID>
23663699

> <PUBCHEM_COMPOUND_CANONICALIZED>
1

> <PUBCHEM_CACTVS_COMPLEXITY>
304

> <PUBCHEM_CACTVS_HBOND_ACCEPTOR>
4

> <PUBCHEM_CACTVS_HBOND_DONOR>
1

> <PUBCHEM_CACTVS_ROTATABLE_BOND>
4

> <PUBCHEM_CACTVS_SUBSKEYS>
AAADccBiOABAQAAAAAAAAAAAAAAAAAAAAAAAAAAAAAAAAAAAAAAAHgQQAAAADIiFwACCAALAAAKIACFSEHDAAAAAAAAIAAAAAEAAAAAAAAAAAAAAFACAAIAAAAAAAAAAAAAAAAAAAAAAAAAAAAAAAAAAAA==

> <PUBCHEM_IUPAC_OPENEYE_NAME>
potassium;2-methyl-2-(prop-2-enoylamino)propane-1-sulfonate

> <PUBCHEM_IUPAC_CAS_NAME>
potassium;2-methyl-2-(1-oxoprop-2-enylamino)-1-propanesulfonate

> <PUBCHEM_IUPAC_NAME_MARKUP>
potassium;2-methyl-2-(prop-2-enoylamino)propane-1-sulfonate

> <PUBCHEM_IUPAC_NAME>
potassium;2-methyl-2-(prop-2-enoylamino)propane-1-sulfonate

> <PUBCHEM_IUPAC_SYSTEMATIC_NAME>
potassium;2-methyl-2-(prop-2-enoylamino)propane-1-sulfonate

> <PUBCHEM_IUPAC_TRADITIONAL_NAME>
potassium;2-acrylamido-2-methyl-propane-1-sulfonate

> <PUBCHEM_IUPAC_INCHI>
InChI=1S/C7H13NO4S.K/c1-4-6(9)8-7(2,3)5-13(10,11)12;/h4H,1,5H2,2-3H3,(H,8,9)(H,10,11,12);/q;+1/p-1

> <PUBCHEM_IUPAC_INCHIKEY>
BWFJQOYMXHEGNQ-UHFFFAOYSA-M

> <PUBCHEM_EXACT_MASS>
245.01241052

> <PUBCHEM_MOLECULAR_FORMULA>
C7H12KNO4S

> <PUBCHEM_MOLECULAR_WEIGHT>
245.34

> <PUBCHEM_SMILES>
CC(C)(CS(=O)(=O)[O-])NC(=O)C=C.[K+]

> <PUBCHEM_OPENEYE_CAN_SMILES>
CC(C)(CS(=O)(=O)[O-])NC(=O)C=C.[K+]

> <PUBCHEM_OPENEYE_ISO_SMILES>
CC(C)(CS(=O)(=O)[O-])NC(=O)C=C.[K+]

> <PUBCHEM_CACTVS_TPSA>
94.7

> <PUBCHEM_MONOISOTOPIC_WEIGHT>
245.01241052

> <PUBCHEM_TOTAL_CHARGE>
0

> <PUBCHEM_HEAVY_ATOM_COUNT>
14

> <PUBCHEM_ATOM_DEF_STEREO_COUNT>
0

> <PUBCHEM_ATOM_UDEF_STEREO_COUNT>
0

> <PUBCHEM_BOND_DEF_STEREO_COUNT>
0

> <PUBCHEM_BOND_UDEF_STEREO_COUNT>
0

> <PUBCHEM_ISOTOPIC_ATOM_COUNT>
0

> <PUBCHEM_COMPONENT_COUNT>
2

> <PUBCHEM_CACTVS_TAUTO_COUNT>
-1

> <PUBCHEM_NONSTANDARDBOND>
1  3  7

> <PUBCHEM_COORDINATE_TYPE>
1
5
255

$$$$
