23665763
  -OEChem-04042513072D

  6  4  0     1  0  0  0  0  0999 V2000
    3.4030    0.2500    0.0000 S   0  0  3  0  0  0  0  0  0  0  0  0
    5.1350    0.2500    0.0000 Na  0  3  0  0  0  0  0  0  0  0  0  0
    4.2690    0.7500    0.0000 O   0  5  0  0  0  0  0  0  0  0  0  0
    2.5369    0.7500    0.0000 O   0  0  0  0  0  0  0  0  0  0  0  0
    3.4030   -0.7500    0.0000 O   0  0  0  0  0  0  0  0  0  0  0  0
    2.0000    0.4400    0.0000 H   0  0  0  0  0  0  0  0  0  0  0  0
  1  3  1  0  0  0  0
  1  4  1  0  0  0  0
  1  5  2  0  0  0  0
  4  6  1  0  0  0  0
M  CHG  2   2   1   3  -1
M  END
> <PUBCHEM_COMPOUND_CID>
23665763

> <PUBCHEM_COMPOUND_CANONICALIZED>
1

> <PUBCHEM_CACTVS_COMPLEXITY>
33.9

> <PUBCHEM_CACTVS_HBOND_ACCEPTOR>
4

> <PUBCHEM_CACTVS_HBOND_DONOR>
1

> <PUBCHEM_CACTVS_ROTATABLE_BOND>
0

> <PUBCHEM_CACTVS_SUBSKEYS>
AAADcQAAMCBAAAAAAAAAAAAAAAAAAAAAAAAAAAAAAAAAAAAAAAAAAAAACAAAAAAAAAAAAAAAAIAAAAAAACAAAAAAAAAAAAAAAAAAAAAAAAAAAAAAAAAAAAAAAAAAAAAAAAAAAAAAAAAAAAAAAAAAAAAAAA==

> <PUBCHEM_IUPAC_OPENEYE_NAME>
sodium;hydrogen sulfite

> <PUBCHEM_IUPAC_CAS_NAME>
sodium;hydrogen sulfite

> <PUBCHEM_IUPAC_NAME_MARKUP>
sodium;hydrogen sulfite

> <PUBCHEM_IUPAC_NAME>
sodium;hydrogen sulfite

> <PUBCHEM_IUPAC_SYSTEMATIC_NAME>
sodium;hydrogen sulfite

> <PUBCHEM_IUPAC_TRADITIONAL_NAME>
sodium;bisulfite

> <PUBCHEM_IUPAC_INCHI>
InChI=1S/Na.H2O3S/c;1-4(2)3/h;(H2,1,2,3)/q+1;/p-1

> <PUBCHEM_IUPAC_INCHIKEY>
DWAQJAXMDSEUJJ-UHFFFAOYSA-M

> <PUBCHEM_EXACT_MASS>
103.95440935

> <PUBCHEM_MOLECULAR_FORMULA>
HNaO3S

> <PUBCHEM_MOLECULAR_WEIGHT>
104.06

> <PUBCHEM_SMILES>
OS(=O)[O-].[Na+]

> <PUBCHEM_OPENEYE_CAN_SMILES>
OS(=O)[O-].[Na+]

> <PUBCHEM_OPENEYE_ISO_SMILES>
OS(=O)[O-].[Na+]

> <PUBCHEM_CACTVS_TPSA>
79.6

> <PUBCHEM_MONOISOTOPIC_WEIGHT>
103.95440935

> <PUBCHEM_TOTAL_CHARGE>
0

> <PUBCHEM_HEAVY_ATOM_COUNT>
5

> <PUBCHEM_ATOM_DEF_STEREO_COUNT>
0

> <PUBCHEM_ATOM_UDEF_STEREO_COUNT>
0

> <PUBCHEM_BOND_DEF_STEREO_COUNT>
0

> <PUBCHEM_BOND_UDEF_STEREO_COUNT>
0

> <PUBCHEM_ISOTOPIC_ATOM_COUNT>
0

> <PUBCHEM_COMPONENT_COUNT>
2

> <PUBCHEM_CACTVS_TAUTO_COUNT>
-1

> <PUBCHEM_NONSTANDARDBOND>
2  3  7

> <PUBCHEM_COORDINATE_TYPE>
1
5
255

$$$$
