23663624
  -OEChem-04042512442D

 16 14  0     0  0  0  0  0  0999 V2000
    3.7320    0.0670    0.0000 S   0  0  0  0  0  0  0  0  0  0  0  0
    2.0000    0.0670    0.0000 Na  0  3  0  0  0  0  0  0  0  0  0  0
    2.8660   -0.4330    0.0000 O   0  5  0  0  0  0  0  0  0  0  0  0
    3.2320    0.9330    0.0000 O   0  0  0  0  0  0  0  0  0  0  0  0
    4.2320   -0.7990    0.0000 O   0  0  0  0  0  0  0  0  0  0  0  0
    4.5981    0.5670    0.0000 C   0  0  0  0  0  0  0  0  0  0  0  0
    5.4641    0.0670    0.0000 C   0  0  0  0  0  0  0  0  0  0  0  0
    6.3301    0.5670    0.0000 C   0  0  0  0  0  0  0  0  0  0  0  0
    5.4641   -0.9330    0.0000 C   0  0  0  0  0  0  0  0  0  0  0  0
    4.9966    1.0419    0.0000 H   0  0  0  0  0  0  0  0  0  0  0  0
    4.1996    1.0419    0.0000 H   0  0  0  0  0  0  0  0  0  0  0  0
    6.6401    0.0301    0.0000 H   0  0  0  0  0  0  0  0  0  0  0  0
    6.8671    0.8770    0.0000 H   0  0  0  0  0  0  0  0  0  0  0  0
    6.0201    1.1039    0.0000 H   0  0  0  0  0  0  0  0  0  0  0  0
    4.9272   -1.2430    0.0000 H   0  0  0  0  0  0  0  0  0  0  0  0
    6.0010   -1.2430    0.0000 H   0  0  0  0  0  0  0  0  0  0  0  0
  1  3  1  0  0  0  0
  1  4  2  0  0  0  0
  1  5  2  0  0  0  0
  1  6  1  0  0  0  0
  6  7  1  0  0  0  0
  6 10  1  0  0  0  0
  6 11  1  0  0  0  0
  7  8  1  0  0  0  0
  7  9  2  0  0  0  0
  8 12  1  0  0  0  0
  8 13  1  0  0  0  0
  8 14  1  0  0  0  0
  9 15  1  0  0  0  0
  9 16  1  0  0  0  0
M  CHG  2   2   1   3  -1
M  END
> <PUBCHEM_COMPOUND_CID>
23663624

> <PUBCHEM_COMPOUND_CANONICALIZED>
1

> <PUBCHEM_CACTVS_COMPLEXITY>
176

> <PUBCHEM_CACTVS_HBOND_ACCEPTOR>
3

> <PUBCHEM_CACTVS_HBOND_DONOR>
0

> <PUBCHEM_CACTVS_ROTATABLE_BOND>
2

> <PUBCHEM_CACTVS_SUBSKEYS>
AAADcYBgMCBAAAAAAAAAAAAAAAAAAAAAAAAAAAAAAAAAAAAAAAAAGAQAAAAADACEQACCAAAAAAKAAgBCAHBAAAAAAAAAAAAAAAAAAAAAAQAAAAAAAAAAAAAAAAAAAAAAAAAAAAAAAAAAAAAAAAAAAAAAAA==

> <PUBCHEM_IUPAC_OPENEYE_NAME>
sodium;2-methylprop-2-ene-1-sulfonate

> <PUBCHEM_IUPAC_CAS_NAME>
sodium;2-methyl-2-propene-1-sulfonate

> <PUBCHEM_IUPAC_NAME_MARKUP>
sodium;2-methylprop-2-ene-1-sulfonate

> <PUBCHEM_IUPAC_NAME>
sodium;2-methylprop-2-ene-1-sulfonate

> <PUBCHEM_IUPAC_SYSTEMATIC_NAME>
sodium;2-methylprop-2-ene-1-sulfonate

> <PUBCHEM_IUPAC_TRADITIONAL_NAME>
sodium;2-methylprop-2-ene-1-sulfonate

> <PUBCHEM_IUPAC_INCHI>
InChI=1S/C4H8O3S.Na/c1-4(2)3-8(5,6)7;/h1,3H2,2H3,(H,5,6,7);/q;+1/p-1

> <PUBCHEM_IUPAC_INCHIKEY>
SZHIIIPPJJXYRY-UHFFFAOYSA-M

> <PUBCHEM_EXACT_MASS>
158.00135954

> <PUBCHEM_MOLECULAR_FORMULA>
C4H7NaO3S

> <PUBCHEM_MOLECULAR_WEIGHT>
158.15

> <PUBCHEM_SMILES>
CC(=C)CS(=O)(=O)[O-].[Na+]

> <PUBCHEM_OPENEYE_CAN_SMILES>
CC(=C)CS(=O)(=O)[O-].[Na+]

> <PUBCHEM_OPENEYE_ISO_SMILES>
CC(=C)CS(=O)(=O)[O-].[Na+]

> <PUBCHEM_CACTVS_TPSA>
65.6

> <PUBCHEM_MONOISOTOPIC_WEIGHT>
158.00135954

> <PUBCHEM_TOTAL_CHARGE>
0

> <PUBCHEM_HEAVY_ATOM_COUNT>
9

> <PUBCHEM_ATOM_DEF_STEREO_COUNT>
0

> <PUBCHEM_ATOM_UDEF_STEREO_COUNT>
0

> <PUBCHEM_BOND_DEF_STEREO_COUNT>
0

> <PUBCHEM_BOND_UDEF_STEREO_COUNT>
0

> <PUBCHEM_ISOTOPIC_ATOM_COUNT>
0

> <PUBCHEM_COMPONENT_COUNT>
2

> <PUBCHEM_CACTVS_TAUTO_COUNT>
-1

> <PUBCHEM_NONSTANDARDBOND>
2  3  7

> <PUBCHEM_COORDINATE_TYPE>
1
5
255

$$$$
