23672305
  -OEChem-04042512462D

 16 15  0     0  0  0  0  0  0999 V2000
    2.0000    1.0000    0.0000 Cl  0  0  0  0  0  0  0  0  0  0  0  0
    5.4641   -2.0000    0.0000 Na  0  3  0  0  0  0  0  0  0  0  0  0
    5.4641   -1.0000    0.0000 O   0  5  0  0  0  0  0  0  0  0  0  0
    3.7320    1.0000    0.0000 C   0  0  0  0  0  0  0  0  0  0  0  0
    4.5981    0.5000    0.0000 C   0  0  0  0  0  0  0  0  0  0  0  0
    2.8660    0.5000    0.0000 C   0  0  0  0  0  0  0  0  0  0  0  0
    4.5981   -0.5000    0.0000 C   0  0  0  0  0  0  0  0  0  0  0  0
    3.7320    2.0000    0.0000 C   0  0  0  0  0  0  0  0  0  0  0  0
    2.8660   -0.5000    0.0000 C   0  0  0  0  0  0  0  0  0  0  0  0
    3.7320   -1.0000    0.0000 C   0  0  0  0  0  0  0  0  0  0  0  0
    5.1350    0.8100    0.0000 H   0  0  0  0  0  0  0  0  0  0  0  0
    4.3520    2.0000    0.0000 H   0  0  0  0  0  0  0  0  0  0  0  0
    3.7320    2.6200    0.0000 H   0  0  0  0  0  0  0  0  0  0  0  0
    3.1120    2.0000    0.0000 H   0  0  0  0  0  0  0  0  0  0  0  0
    2.3291   -0.8100    0.0000 H   0  0  0  0  0  0  0  0  0  0  0  0
    3.7320   -1.6200    0.0000 H   0  0  0  0  0  0  0  0  0  0  0  0
  1  6  1  0  0  0  0
  3  7  1  0  0  0  0
  4  5  1  0  0  0  0
  4  6  2  0  0  0  0
  4  8  1  0  0  0  0
  5  7  2  0  0  0  0
  5 11  1  0  0  0  0
  6  9  1  0  0  0  0
  7 10  1  0  0  0  0
  8 12  1  0  0  0  0
  8 13  1  0  0  0  0
  8 14  1  0  0  0  0
  9 10  2  0  0  0  0
  9 15  1  0  0  0  0
 10 16  1  0  0  0  0
M  CHG  2   2   1   3  -1
M  END
> <PUBCHEM_COMPOUND_CID>
23672305

> <PUBCHEM_COMPOUND_CANONICALIZED>
1

> <PUBCHEM_CACTVS_COMPLEXITY>
99.6

> <PUBCHEM_CACTVS_HBOND_ACCEPTOR>
1

> <PUBCHEM_CACTVS_HBOND_DONOR>
0

> <PUBCHEM_CACTVS_ROTATABLE_BOND>
0

> <PUBCHEM_CACTVS_SUBSKEYS>
AAADcYBgICAEAAAAAAAAAAAAAAAAAAAAAAAwAAAAAAAAAAABAAAAGgIAAAAADAaAmCAyBoAAAACAAiBCAAACAAAgJQAIiAAGCogIJiKBExKAMAAkwBEIiAeAwBAOACABAAABAAAAQAIAAAIAAAAAAAAAAA==

> <PUBCHEM_IUPAC_OPENEYE_NAME>
sodium;4-chloro-3-methyl-phenolate

> <PUBCHEM_IUPAC_CAS_NAME>
sodium;4-chloro-3-methylphenolate

> <PUBCHEM_IUPAC_NAME_MARKUP>
sodium;4-chloro-3-methylphenolate

> <PUBCHEM_IUPAC_NAME>
sodium;4-chloro-3-methylphenolate

> <PUBCHEM_IUPAC_SYSTEMATIC_NAME>
sodium;4-chloranyl-3-methyl-phenolate

> <PUBCHEM_IUPAC_TRADITIONAL_NAME>
sodium;4-chloro-3-methyl-phenolate

> <PUBCHEM_IUPAC_INCHI>
InChI=1S/C7H7ClO.Na/c1-5-4-6(9)2-3-7(5)8;/h2-4,9H,1H3;/q;+1/p-1

> <PUBCHEM_IUPAC_INCHIKEY>
DPHAGKRZIJHMNL-UHFFFAOYSA-M

> <PUBCHEM_EXACT_MASS>
164.0004868

> <PUBCHEM_MOLECULAR_FORMULA>
C7H6ClNaO

> <PUBCHEM_MOLECULAR_WEIGHT>
164.56

> <PUBCHEM_SMILES>
CC1=C(C=CC(=C1)[O-])Cl.[Na+]

> <PUBCHEM_OPENEYE_CAN_SMILES>
CC1=C(C=CC(=C1)[O-])Cl.[Na+]

> <PUBCHEM_OPENEYE_ISO_SMILES>
CC1=C(C=CC(=C1)[O-])Cl.[Na+]

> <PUBCHEM_CACTVS_TPSA>
23.1

> <PUBCHEM_MONOISOTOPIC_WEIGHT>
164.0004868

> <PUBCHEM_TOTAL_CHARGE>
0

> <PUBCHEM_HEAVY_ATOM_COUNT>
10

> <PUBCHEM_ATOM_DEF_STEREO_COUNT>
0

> <PUBCHEM_ATOM_UDEF_STEREO_COUNT>
0

> <PUBCHEM_BOND_DEF_STEREO_COUNT>
0

> <PUBCHEM_BOND_UDEF_STEREO_COUNT>
0

> <PUBCHEM_ISOTOPIC_ATOM_COUNT>
0

> <PUBCHEM_COMPONENT_COUNT>
2

> <PUBCHEM_CACTVS_TAUTO_COUNT>
-1

> <PUBCHEM_NONSTANDARDBOND>
2  3  7

> <PUBCHEM_COORDINATE_TYPE>
1
5
255

> <PUBCHEM_BONDANNOTATIONS>
4  5  8
4  6  8
5  7  8
6  9  8
7  10  8
9  10  8

$$$$
