23670844
  -OEChem-04042512222D

 22 21  0     0  0  0  0  0  0999 V2000
    4.5981    1.4050    0.0000 S   0  0  0  0  0  0  0  0  0  0  0  0
    5.4641    2.9050    0.0000 Na  0  3  0  0  0  0  0  0  0  0  0  0
    4.5981    2.4050    0.0000 O   0  5  0  0  0  0  0  0  0  0  0  0
    5.5981    1.4050    0.0000 O   0  0  0  0  0  0  0  0  0  0  0  0
    3.5981    1.4050    0.0000 O   0  0  0  0  0  0  0  0  0  0  0  0
    6.3301   -2.5950    0.0000 O   0  0  0  0  0  0  0  0  0  0  0  0
    2.8660   -2.5950    0.0000 O   0  0  0  0  0  0  0  0  0  0  0  0
    7.1962   -1.0950    0.0000 O   0  0  0  0  0  0  0  0  0  0  0  0
    2.0000   -1.0950    0.0000 O   0  0  0  0  0  0  0  0  0  0  0  0
    4.5981    0.4050    0.0000 C   0  0  0  0  0  0  0  0  0  0  0  0
    3.7320   -0.0950    0.0000 C   0  0  0  0  0  0  0  0  0  0  0  0
    5.4641   -0.0950    0.0000 C   0  0  0  0  0  0  0  0  0  0  0  0
    3.7320   -1.0950    0.0000 C   0  0  0  0  0  0  0  0  0  0  0  0
    5.4641   -1.0950    0.0000 C   0  0  0  0  0  0  0  0  0  0  0  0
    4.5981   -1.5950    0.0000 C   0  0  0  0  0  0  0  0  0  0  0  0
    6.3301   -1.5950    0.0000 C   0  0  0  0  0  0  0  0  0  0  0  0
    2.8660   -1.5950    0.0000 C   0  0  0  0  0  0  0  0  0  0  0  0
    3.1951    0.2150    0.0000 H   0  0  0  0  0  0  0  0  0  0  0  0
    6.0010    0.2150    0.0000 H   0  0  0  0  0  0  0  0  0  0  0  0
    4.5981   -2.2150    0.0000 H   0  0  0  0  0  0  0  0  0  0  0  0
    6.8671   -2.9050    0.0000 H   0  0  0  0  0  0  0  0  0  0  0  0
    2.3291   -2.9050    0.0000 H   0  0  0  0  0  0  0  0  0  0  0  0
  1  3  1  0  0  0  0
  1  4  2  0  0  0  0
  1  5  2  0  0  0  0
  1 10  1  0  0  0  0
  6 16  1  0  0  0  0
  6 21  1  0  0  0  0
  7 17  1  0  0  0  0
  7 22  1  0  0  0  0
  8 16  2  0  0  0  0
  9 17  2  0  0  0  0
 10 11  2  0  0  0  0
 10 12  1  0  0  0  0
 11 13  1  0  0  0  0
 11 18  1  0  0  0  0
 12 14  2  0  0  0  0
 12 19  1  0  0  0  0
 13 15  2  0  0  0  0
 13 17  1  0  0  0  0
 14 15  1  0  0  0  0
 14 16  1  0  0  0  0
 15 20  1  0  0  0  0
M  CHG  2   2   1   3  -1
M  END
> <PUBCHEM_COMPOUND_CID>
23670844

> <PUBCHEM_COMPOUND_CANONICALIZED>
1

> <PUBCHEM_CACTVS_COMPLEXITY>
377

> <PUBCHEM_CACTVS_HBOND_ACCEPTOR>
7

> <PUBCHEM_CACTVS_HBOND_DONOR>
2

> <PUBCHEM_CACTVS_ROTATABLE_BOND>
3

> <PUBCHEM_CACTVS_SUBSKEYS>
AAADcYBwOCBAAAAAAAAAAAAAAAAAAAAAAAAwAAAAAAAAAAABAAAAGgQACAAADACA2AAwCYAAAgKIAiDSCHBCAEAkAAAAiBkACMgIJjKAFRCAcQAkwAEImYeI7mCOAAACgAAAAAAAAAUAAAAAAAAAAAAAAA==

> <PUBCHEM_IUPAC_OPENEYE_NAME>
sodium;3,5-dicarboxybenzenesulfonate

> <PUBCHEM_IUPAC_CAS_NAME>
sodium;3,5-dicarboxybenzenesulfonate

> <PUBCHEM_IUPAC_NAME_MARKUP>
sodium;3,5-dicarboxybenzenesulfonate

> <PUBCHEM_IUPAC_NAME>
sodium;3,5-dicarboxybenzenesulfonate

> <PUBCHEM_IUPAC_SYSTEMATIC_NAME>
sodium;3,5-dicarboxybenzenesulfonate

> <PUBCHEM_IUPAC_TRADITIONAL_NAME>
sodium;3,5-dicarboxybesylate

> <PUBCHEM_IUPAC_INCHI>
InChI=1S/C8H6O7S.Na/c9-7(10)4-1-5(8(11)12)3-6(2-4)16(13,14)15;/h1-3H,(H,9,10)(H,11,12)(H,13,14,15);/q;+1/p-1

> <PUBCHEM_IUPAC_INCHIKEY>
YXTFRJVQOWZDPP-UHFFFAOYSA-M

> <PUBCHEM_EXACT_MASS>
267.96536795

> <PUBCHEM_MOLECULAR_FORMULA>
C8H5NaO7S

> <PUBCHEM_MOLECULAR_WEIGHT>
268.18

> <PUBCHEM_SMILES>
C1=C(C=C(C=C1C(=O)O)S(=O)(=O)[O-])C(=O)O.[Na+]

> <PUBCHEM_OPENEYE_CAN_SMILES>
C1=C(C=C(C=C1C(=O)O)S(=O)(=O)[O-])C(=O)O.[Na+]

> <PUBCHEM_OPENEYE_ISO_SMILES>
C1=C(C=C(C=C1C(=O)O)S(=O)(=O)[O-])C(=O)O.[Na+]

> <PUBCHEM_CACTVS_TPSA>
140

> <PUBCHEM_MONOISOTOPIC_WEIGHT>
267.96536795

> <PUBCHEM_TOTAL_CHARGE>
0

> <PUBCHEM_HEAVY_ATOM_COUNT>
17

> <PUBCHEM_ATOM_DEF_STEREO_COUNT>
0

> <PUBCHEM_ATOM_UDEF_STEREO_COUNT>
0

> <PUBCHEM_BOND_DEF_STEREO_COUNT>
0

> <PUBCHEM_BOND_UDEF_STEREO_COUNT>
0

> <PUBCHEM_ISOTOPIC_ATOM_COUNT>
0

> <PUBCHEM_COMPONENT_COUNT>
2

> <PUBCHEM_CACTVS_TAUTO_COUNT>
-1

> <PUBCHEM_NONSTANDARDBOND>
2  3  7

> <PUBCHEM_COORDINATE_TYPE>
1
5
255

> <PUBCHEM_BONDANNOTATIONS>
10  11  8
10  12  8
11  13  8
12  14  8
13  15  8
14  15  8

$$$$
