23692758
  -OEChem-04042512362D

 60 58  0     1  0  0  0  0  0999 V2000
    3.4030   -1.1645    0.0000 P   0  0  0  0  0  0  0  0  0  0  0  0
    6.8671    2.8355    0.0000 P   0  0  3  0  0  0  0  0  0  0  0  0
    3.4030    2.8355    0.0000 P   0  0  0  0  0  0  0  0  0  0  0  0
    5.1350   -3.1645    0.0000 P   0  0  0  0  0  0  0  0  0  0  0  0
    7.7331   -1.6645    0.0000 P   0  0  0  0  0  0  0  0  0  0  0  0
    6.8671    4.5675    0.0000 Na  0  3  0  0  0  0  0  0  0  0  0  0
    3.4030   -2.1645    0.0000 O   0  0  0  0  0  0  0  0  0  0  0  0
    2.4030   -1.1645    0.0000 O   0  0  0  0  0  0  0  0  0  0  0  0
    4.4030   -1.1645    0.0000 O   0  0  0  0  0  0  0  0  0  0  0  0
    7.3671    3.7015    0.0000 O   0  5  0  0  0  0  0  0  0  0  0  0
    7.7331    2.3355    0.0000 O   0  0  0  0  0  0  0  0  0  0  0  0
    2.5369    2.3355    0.0000 O   0  0  0  0  0  0  0  0  0  0  0  0
    2.9030    3.7015    0.0000 O   0  0  0  0  0  0  0  0  0  0  0  0
    5.6350   -4.0306    0.0000 O   0  0  0  0  0  0  0  0  0  0  0  0
    4.2690   -3.6645    0.0000 O   0  0  0  0  0  0  0  0  0  0  0  0
    8.5991   -2.1645    0.0000 O   0  0  0  0  0  0  0  0  0  0  0  0
    8.2331   -0.7985    0.0000 O   0  0  0  0  0  0  0  0  0  0  0  0
    6.3671    1.9694    0.0000 O   0  0  0  0  0  0  0  0  0  0  0  0
    3.9030    1.9694    0.0000 O   0  0  0  0  0  0  0  0  0  0  0  0
    4.6350   -2.2985    0.0000 O   0  0  0  0  0  0  0  0  0  0  0  0
    7.2331   -2.5306    0.0000 O   0  0  0  0  0  0  0  0  0  0  0  0
    4.2690    0.3355    0.0000 N   0  0  3  0  0  0  0  0  0  0  0  0
    5.1350    2.8355    0.0000 N   0  0  3  0  0  0  0  0  0  0  0  0
    6.0010   -1.6645    0.0000 N   0  0  0  0  0  0  0  0  0  0  0  0
    4.2690    1.3355    0.0000 C   0  0  0  0  0  0  0  0  0  0  0  0
    5.1350   -0.1645    0.0000 C   0  0  0  0  0  0  0  0  0  0  0  0
    5.1350    1.8355    0.0000 C   0  0  0  0  0  0  0  0  0  0  0  0
    5.1350   -1.1645    0.0000 C   0  0  0  0  0  0  0  0  0  0  0  0
    3.4030   -0.1645    0.0000 C   0  0  0  0  0  0  0  0  0  0  0  0
    6.0010    3.3355    0.0000 C   0  0  0  0  0  0  0  0  0  0  0  0
    4.2690    3.3355    0.0000 C   0  0  0  0  0  0  0  0  0  0  0  0
    6.0010   -2.6645    0.0000 C   0  0  0  0  0  0  0  0  0  0  0  0
    6.8671   -1.1645    0.0000 C   0  0  0  0  0  0  0  0  0  0  0  0
    4.0569    1.9181    0.0000 H   0  0  0  0  0  0  0  0  0  0  0  0
    3.6584    1.2278    0.0000 H   0  0  0  0  0  0  0  0  0  0  0  0
    5.7456   -0.2722    0.0000 H   0  0  0  0  0  0  0  0  0  0  0  0
    5.3471    0.4181    0.0000 H   0  0  0  0  0  0  0  0  0  0  0  0
    5.3471    1.2528    0.0000 H   0  0  0  0  0  0  0  0  0  0  0  0
    5.7456    1.9431    0.0000 H   0  0  0  0  0  0  0  0  0  0  0  0
    4.5244   -1.0569    0.0000 H   0  0  0  0  0  0  0  0  0  0  0  0
    4.9230   -1.7472    0.0000 H   0  0  0  0  0  0  0  0  0  0  0  0
    3.1909    0.4181    0.0000 H   0  0  0  0  0  0  0  0  0  0  0  0
    2.7924   -0.2722    0.0000 H   0  0  0  0  0  0  0  0  0  0  0  0
    6.3996    3.8104    0.0000 H   0  0  0  0  0  0  0  0  0  0  0  0
    5.6025    3.8104    0.0000 H   0  0  0  0  0  0  0  0  0  0  0  0
    4.6675    3.8104    0.0000 H   0  0  0  0  0  0  0  0  0  0  0  0
    3.8705    3.8104    0.0000 H   0  0  0  0  0  0  0  0  0  0  0  0
    6.2131   -3.2472    0.0000 H   0  0  0  0  0  0  0  0  0  0  0  0
    6.6116   -2.5569    0.0000 H   0  0  0  0  0  0  0  0  0  0  0  0
    7.2656   -0.6896    0.0000 H   0  0  0  0  0  0  0  0  0  0  0  0
    6.4685   -0.6896    0.0000 H   0  0  0  0  0  0  0  0  0  0  0  0
    2.8660   -2.4745    0.0000 H   0  0  0  0  0  0  0  0  0  0  0  0
    2.0930   -0.6276    0.0000 H   0  0  0  0  0  0  0  0  0  0  0  0
    8.2700    2.6455    0.0000 H   0  0  0  0  0  0  0  0  0  0  0  0
    2.0000    2.6455    0.0000 H   0  0  0  0  0  0  0  0  0  0  0  0
    3.2130    4.2384    0.0000 H   0  0  0  0  0  0  0  0  0  0  0  0
    5.3250   -4.5675    0.0000 H   0  0  0  0  0  0  0  0  0  0  0  0
    4.2690   -4.2845    0.0000 H   0  0  0  0  0  0  0  0  0  0  0  0
    9.1360   -1.8545    0.0000 H   0  0  0  0  0  0  0  0  0  0  0  0
    8.8531   -0.7985    0.0000 H   0  0  0  0  0  0  0  0  0  0  0  0
  1  7  1  0  0  0  0
  1  8  1  0  0  0  0
  1  9  2  0  0  0  0
  1 29  1  0  0  0  0
  2 10  1  0  0  0  0
  2 11  1  0  0  0  0
  2 18  2  0  0  0  0
  2 30  1  0  0  0  0
  3 12  1  0  0  0  0
  3 13  1  0  0  0  0
  3 19  2  0  0  0  0
  3 31  1  0  0  0  0
  4 14  1  0  0  0  0
  4 15  1  0  0  0  0
  4 20  2  0  0  0  0
  4 32  1  0  0  0  0
  5 16  1  0  0  0  0
  5 17  1  0  0  0  0
  5 21  2  0  0  0  0
  5 33  1  0  0  0  0
  7 52  1  0  0  0  0
  8 53  1  0  0  0  0
 11 54  1  0  0  0  0
 12 55  1  0  0  0  0
 13 56  1  0  0  0  0
 14 57  1  0  0  0  0
 15 58  1  0  0  0  0
 16 59  1  0  0  0  0
 17 60  1  0  0  0  0
 22 25  1  0  0  0  0
 22 26  1  0  0  0  0
 22 29  1  0  0  0  0
 23 27  1  0  0  0  0
 23 30  1  0  0  0  0
 23 31  1  0  0  0  0
 24 28  1  0  0  0  0
 24 32  1  0  0  0  0
 24 33  1  0  0  0  0
 25 27  1  0  0  0  0
 25 34  1  0  0  0  0
 25 35  1  0  0  0  0
 26 28  1  0  0  0  0
 26 36  1  0  0  0  0
 26 37  1  0  0  0  0
 27 38  1  0  0  0  0
 27 39  1  0  0  0  0
 28 40  1  0  0  0  0
 28 41  1  0  0  0  0
 29 42  1  0  0  0  0
 29 43  1  0  0  0  0
 30 44  1  0  0  0  0
 30 45  1  0  0  0  0
 31 46  1  0  0  0  0
 31 47  1  0  0  0  0
 32 48  1  0  0  0  0
 32 49  1  0  0  0  0
 33 50  1  0  0  0  0
 33 51  1  0  0  0  0
M  CHG  2   6   1  10  -1
M  END
> <PUBCHEM_COMPOUND_CID>
23692758

> <PUBCHEM_COMPOUND_CANONICALIZED>
1

> <PUBCHEM_CACTVS_COMPLEXITY>
813

> <PUBCHEM_CACTVS_HBOND_ACCEPTOR>
18

> <PUBCHEM_CACTVS_HBOND_DONOR>
9

> <PUBCHEM_CACTVS_ROTATABLE_BOND>
16

> <PUBCHEM_CACTVS_SUBSKEYS>
AAADceBzPCOAAAAAAAAAAAAAAAAAAAAAAAAAAAAAAAAAAAAAAAAAHAgACCAAAADBAAQAAAMAABAAQAAAAIAAAAAAAAAAAAAIAAAAQAAAAAAQAAAAAACAAAAAAAAAAAAAAAAAAAAAAAAAAAAAAAAAAAAAAA==

> <PUBCHEM_IUPAC_OPENEYE_NAME>
sodium;[2-[2-[bis(phosphonomethyl)amino]ethyl-(phosphonomethyl)amino]ethyl-(phosphonomethyl)amino]methyl-hydroxy-phosphinate

> <PUBCHEM_IUPAC_CAS_NAME>
sodium;[2-[2-[bis(phosphonomethyl)amino]ethyl-(phosphonomethyl)amino]ethyl-(phosphonomethyl)amino]methyl-hydroxyphosphinate

> <PUBCHEM_IUPAC_NAME_MARKUP>
sodium;[2-[2-[bis(phosphonomethyl)amino]ethyl-(phosphonomethyl)amino]ethyl-(phosphonomethyl)amino]methyl-hydroxyphosphinate

> <PUBCHEM_IUPAC_NAME>
sodium;[2-[2-[bis(phosphonomethyl)amino]ethyl-(phosphonomethyl)amino]ethyl-(phosphonomethyl)amino]methyl-hydroxyphosphinate

> <PUBCHEM_IUPAC_SYSTEMATIC_NAME>
sodium;[2-[2-[bis(phosphonomethyl)amino]ethyl-(phosphonomethyl)amino]ethyl-(phosphonomethyl)amino]methyl-oxidanyl-phosphinate

> <PUBCHEM_IUPAC_TRADITIONAL_NAME>
sodium;[2-[2-[bis(phosphonomethyl)amino]ethyl-(phosphonomethyl)amino]ethyl-(phosphonomethyl)amino]methyl-hydroxy-phosphinate

> <PUBCHEM_IUPAC_INCHI>
InChI=1S/C9H28N3O15P5.Na/c13-28(14,15)5-10(1-3-11(6-29(16,17)18)7-30(19,20)21)2-4-12(8-31(22,23)24)9-32(25,26)27;/h1-9H2,(H2,13,14,15)(H2,16,17,18)(H2,19,20,21)(H2,22,23,24)(H2,25,26,27);/q;+1/p-1

> <PUBCHEM_IUPAC_INCHIKEY>
ODBPOHVSVJZQRX-UHFFFAOYSA-M

> <PUBCHEM_EXACT_MASS>
595.00279643

> <PUBCHEM_MOLECULAR_FORMULA>
C9H27N3NaO15P5

> <PUBCHEM_MOLECULAR_WEIGHT>
595.18

> <PUBCHEM_SMILES>
C(CN(CP(=O)(O)O)CP(=O)(O)O)N(CCN(CP(=O)(O)O)CP(=O)(O)[O-])CP(=O)(O)O.[Na+]

> <PUBCHEM_OPENEYE_CAN_SMILES>
C(CN(CP(=O)(O)O)CP(=O)(O)O)N(CCN(CP(=O)(O)O)CP(=O)(O)[O-])CP(=O)(O)O.[Na+]

> <PUBCHEM_OPENEYE_ISO_SMILES>
C(CN(CP(=O)(O)O)CP(=O)(O)O)N(CCN(CP(=O)(O)O)CP(=O)(O)[O-])CP(=O)(O)O.[Na+]

> <PUBCHEM_CACTVS_TPSA>
300

> <PUBCHEM_MONOISOTOPIC_WEIGHT>
595.00279643

> <PUBCHEM_TOTAL_CHARGE>
0

> <PUBCHEM_HEAVY_ATOM_COUNT>
33

> <PUBCHEM_ATOM_DEF_STEREO_COUNT>
0

> <PUBCHEM_ATOM_UDEF_STEREO_COUNT>
0

> <PUBCHEM_BOND_DEF_STEREO_COUNT>
0

> <PUBCHEM_BOND_UDEF_STEREO_COUNT>
0

> <PUBCHEM_ISOTOPIC_ATOM_COUNT>
0

> <PUBCHEM_COMPONENT_COUNT>
2

> <PUBCHEM_CACTVS_TAUTO_COUNT>
-1

> <PUBCHEM_NONSTANDARDBOND>
6  10  7

> <PUBCHEM_COORDINATE_TYPE>
1
5
255

$$$$
