23712847
  -OEChem-04042512312D

 14 12  0     1  0  0  0  0  0999 V2000
    3.5000   -0.3170    0.0000 P   0  0  3  0  0  0  0  0  0  0  0  0
    2.0000    0.5490    0.0000 Na  0  3  0  0  0  0  0  0  0  0  0  0
    3.0000    0.5490    0.0000 O   0  5  0  0  0  0  0  0  0  0  0  0
    2.6340   -0.8170    0.0000 O   0  0  0  0  0  0  0  0  0  0  0  0
    4.0000   -1.1830    0.0000 O   0  0  0  0  0  0  0  0  0  0  0  0
    4.3660    0.1830    0.0000 C   0  0  0  0  0  0  0  0  0  0  0  0
    5.2320   -0.3170    0.0000 C   0  0  0  0  0  0  0  0  0  0  0  0
    4.3660    1.1830    0.0000 C   0  0  0  0  0  0  0  0  0  0  0  0
    4.9220   -0.8539    0.0000 H   0  0  0  0  0  0  0  0  0  0  0  0
    5.7690   -0.6270    0.0000 H   0  0  0  0  0  0  0  0  0  0  0  0
    5.5420    0.2199    0.0000 H   0  0  0  0  0  0  0  0  0  0  0  0
    4.9030    1.4930    0.0000 H   0  0  0  0  0  0  0  0  0  0  0  0
    3.8291    1.4930    0.0000 H   0  0  0  0  0  0  0  0  0  0  0  0
    2.0970   -0.5070    0.0000 H   0  0  0  0  0  0  0  0  0  0  0  0
  1  3  1  0  0  0  0
  1  4  1  0  0  0  0
  1  5  2  0  0  0  0
  1  6  1  0  0  0  0
  4 14  1  0  0  0  0
  6  7  1  0  0  0  0
  6  8  2  0  0  0  0
  7  9  1  0  0  0  0
  7 10  1  0  0  0  0
  7 11  1  0  0  0  0
  8 12  1  0  0  0  0
  8 13  1  0  0  0  0
M  CHG  2   2   1   3  -1
M  END
> <PUBCHEM_COMPOUND_CID>
23712847

> <PUBCHEM_COMPOUND_CANONICALIZED>
1

> <PUBCHEM_CACTVS_COMPLEXITY>
132

> <PUBCHEM_CACTVS_HBOND_ACCEPTOR>
3

> <PUBCHEM_CACTVS_HBOND_DONOR>
1

> <PUBCHEM_CACTVS_ROTATABLE_BOND>
1

> <PUBCHEM_CACTVS_SUBSKEYS>
AAADcYBAMCIAAAAAAAAAAAAAAAAAAAAAAAAAAAAAAAAAAAAAAAAAGAgACCAACACAAAACAAAAABCAQABCAIAAAAAAAAAAAAAAAAAAAAAAAQAAAAAAAAAAAAAAAAAAAAAAAAAAAAAAAAAAAAAAAAAAAAAAAA==

> <PUBCHEM_IUPAC_OPENEYE_NAME>
sodium;hydroxy(isopropenyl)phosphinate

> <PUBCHEM_IUPAC_CAS_NAME>
sodium;hydroxy(1-methylethenyl)phosphinate

> <PUBCHEM_IUPAC_NAME_MARKUP>
sodium;hydroxy(prop-1-en-2-yl)phosphinate

> <PUBCHEM_IUPAC_NAME>
sodium;hydroxy(prop-1-en-2-yl)phosphinate

> <PUBCHEM_IUPAC_SYSTEMATIC_NAME>
sodium;oxidanyl(prop-1-en-2-yl)phosphinate

> <PUBCHEM_IUPAC_TRADITIONAL_NAME>
sodium;hydroxy(isopropenyl)phosphinate

> <PUBCHEM_IUPAC_INCHI>
InChI=1S/C3H7O3P.Na/c1-3(2)7(4,5)6;/h1H2,2H3,(H2,4,5,6);/q;+1/p-1

> <PUBCHEM_IUPAC_INCHIKEY>
BXBOSIKDGKRDHR-UHFFFAOYSA-M

> <PUBCHEM_EXACT_MASS>
143.99522533

> <PUBCHEM_MOLECULAR_FORMULA>
C3H6NaO3P

> <PUBCHEM_MOLECULAR_WEIGHT>
144.04

> <PUBCHEM_SMILES>
CC(=C)P(=O)(O)[O-].[Na+]

> <PUBCHEM_OPENEYE_CAN_SMILES>
CC(=C)P(=O)(O)[O-].[Na+]

> <PUBCHEM_OPENEYE_ISO_SMILES>
CC(=C)P(=O)(O)[O-].[Na+]

> <PUBCHEM_CACTVS_TPSA>
60.4

> <PUBCHEM_MONOISOTOPIC_WEIGHT>
143.99522533

> <PUBCHEM_TOTAL_CHARGE>
0

> <PUBCHEM_HEAVY_ATOM_COUNT>
8

> <PUBCHEM_ATOM_DEF_STEREO_COUNT>
0

> <PUBCHEM_ATOM_UDEF_STEREO_COUNT>
0

> <PUBCHEM_BOND_DEF_STEREO_COUNT>
0

> <PUBCHEM_BOND_UDEF_STEREO_COUNT>
0

> <PUBCHEM_ISOTOPIC_ATOM_COUNT>
0

> <PUBCHEM_COMPONENT_COUNT>
2

> <PUBCHEM_CACTVS_TAUTO_COUNT>
-1

> <PUBCHEM_NONSTANDARDBOND>
2  3  7

> <PUBCHEM_COORDINATE_TYPE>
1
5
255

$$$$
