24504
  -OEChem-04042512322D

  5  2  0     0  0  0  0  0  0999 V2000
    3.7320   -0.2500    0.0000 Ca  0  2  0  0  0  0  0  0  0  0  0  0
    5.4641   -0.2500    0.0000 Cl  0  0  0  0  0  0  0  0  0  0  0  0
    2.0000   -0.2500    0.0000 Cl  0  0  0  0  0  0  0  0  0  0  0  0
    4.5981    0.2500    0.0000 O   0  5  0  0  0  0  0  0  0  0  0  0
    2.8660    0.2500    0.0000 O   0  5  0  0  0  0  0  0  0  0  0  0
  2  4  1  0  0  0  0
  3  5  1  0  0  0  0
M  CHG  3   1   2   4  -1   5  -1
M  END
> <PUBCHEM_COMPOUND_CID>
24504

> <PUBCHEM_COMPOUND_CANONICALIZED>
1

> <PUBCHEM_CACTVS_COMPLEXITY>
2

> <PUBCHEM_CACTVS_HBOND_ACCEPTOR>
2

> <PUBCHEM_CACTVS_HBOND_DONOR>
0

> <PUBCHEM_CACTVS_ROTATABLE_BOND>
0

> <PUBCHEM_CACTVS_SUBSKEYS>
AAADcQAAMAAGAAgAAAAAAAAAAAAAAAAAAAAAAAAAAAAAAAAAAAAAAAAAAAAAAAAAAAAAAAAAAAAAAAAAAAAAAAAAAAAAAAAAAAAAAAAAAAAAAAAAAAAAAAAAAAAAAAAAAAAAAAAAAAAAAAAAAAAAAAAAAA==

> <PUBCHEM_IUPAC_OPENEYE_NAME>
calcium;dihypochlorite

> <PUBCHEM_IUPAC_CAS_NAME>
calcium;dihypochlorite

> <PUBCHEM_IUPAC_NAME_MARKUP>
calcium;dihypochlorite

> <PUBCHEM_IUPAC_NAME>
calcium;dihypochlorite

> <PUBCHEM_IUPAC_SYSTEMATIC_NAME>
calcium;dihypochlorite

> <PUBCHEM_IUPAC_TRADITIONAL_NAME>
calcium;dihypochlorite

> <PUBCHEM_IUPAC_INCHI>
InChI=1S/Ca.2ClO/c;2*1-2/q+2;2*-1

> <PUBCHEM_IUPAC_INCHIKEY>
ZKQDCIXGCQPQNV-UHFFFAOYSA-N

> <PUBCHEM_EXACT_MASS>
141.8901255

> <PUBCHEM_MOLECULAR_FORMULA>
CaCl2O2

> <PUBCHEM_MOLECULAR_WEIGHT>
142.98

> <PUBCHEM_SMILES>
[O-]Cl.[O-]Cl.[Ca+2]

> <PUBCHEM_OPENEYE_CAN_SMILES>
[O-]Cl.[O-]Cl.[Ca+2]

> <PUBCHEM_OPENEYE_ISO_SMILES>
[O-]Cl.[O-]Cl.[Ca+2]

> <PUBCHEM_CACTVS_TPSA>
46.1

> <PUBCHEM_MONOISOTOPIC_WEIGHT>
141.8901255

> <PUBCHEM_TOTAL_CHARGE>
0

> <PUBCHEM_HEAVY_ATOM_COUNT>
5

> <PUBCHEM_ATOM_DEF_STEREO_COUNT>
0

> <PUBCHEM_ATOM_UDEF_STEREO_COUNT>
0

> <PUBCHEM_BOND_DEF_STEREO_COUNT>
0

> <PUBCHEM_BOND_UDEF_STEREO_COUNT>
0

> <PUBCHEM_ISOTOPIC_ATOM_COUNT>
0

> <PUBCHEM_COMPONENT_COUNT>
3

> <PUBCHEM_CACTVS_TAUTO_COUNT>
-1

> <PUBCHEM_COORDINATE_TYPE>
1
5
255

$$$$
