24526
  -OEChem-04042505482D

  2  1  0     0  0  0  0  0  0999 V2000
    2.0000    0.0000    0.0000 Cl  0  0  0  0  0  0  0  0  0  0  0  0
    3.0000    0.0000    0.0000 Cl  0  0  0  0  0  0  0  0  0  0  0  0
  1  2  1  0  0  0  0
M  END
> <PUBCHEM_COMPOUND_CID>
24526

> <PUBCHEM_COMPOUND_CANONICALIZED>
1

> <PUBCHEM_CACTVS_COMPLEXITY>
0

> <PUBCHEM_CACTVS_HBOND_ACCEPTOR>
0

> <PUBCHEM_CACTVS_HBOND_DONOR>
0

> <PUBCHEM_CACTVS_ROTATABLE_BOND>
0

> <PUBCHEM_CACTVS_SUBSKEYS>
AAADcQAAAAAGAAAAAAAAAAAAAAAAAAAAAAAAAAAAAAAAAAAAAAAAAAAAAAAAAAAAAAAAAAAAAAAAAAAAAAAAAAAAAAAAAAAAAAAAAAAAAAAAAAAAAAAAAAAAAAAAAAAAAAAAAAAAAAAAAAAAAAAAAAAAAA==

> <PUBCHEM_IUPAC_OPENEYE_NAME>
molecular chlorine

> <PUBCHEM_IUPAC_CAS_NAME>
molecular chlorine

> <PUBCHEM_IUPAC_NAME_MARKUP>
molecular chlorine

> <PUBCHEM_IUPAC_NAME>
molecular chlorine

> <PUBCHEM_IUPAC_SYSTEMATIC_NAME>
molecular chlorine

> <PUBCHEM_IUPAC_TRADITIONAL_NAME>
molecular chlorine

> <PUBCHEM_IUPAC_INCHI>
InChI=1S/Cl2/c1-2

> <PUBCHEM_IUPAC_INCHIKEY>
KZBUYRJDOAKODT-UHFFFAOYSA-N

> <PUBCHEM_XLOGP3_AA>
1.6

> <PUBCHEM_EXACT_MASS>
69.9377054

> <PUBCHEM_MOLECULAR_FORMULA>
Cl2

> <PUBCHEM_MOLECULAR_WEIGHT>
70.90

> <PUBCHEM_SMILES>
ClCl

> <PUBCHEM_OPENEYE_CAN_SMILES>
ClCl

> <PUBCHEM_OPENEYE_ISO_SMILES>
ClCl

> <PUBCHEM_CACTVS_TPSA>
0

> <PUBCHEM_MONOISOTOPIC_WEIGHT>
69.9377054

> <PUBCHEM_TOTAL_CHARGE>
0

> <PUBCHEM_HEAVY_ATOM_COUNT>
2

> <PUBCHEM_ATOM_DEF_STEREO_COUNT>
0

> <PUBCHEM_ATOM_UDEF_STEREO_COUNT>
0

> <PUBCHEM_BOND_DEF_STEREO_COUNT>
0

> <PUBCHEM_BOND_UDEF_STEREO_COUNT>
0

> <PUBCHEM_ISOTOPIC_ATOM_COUNT>
0

> <PUBCHEM_COMPONENT_COUNT>
1

> <PUBCHEM_CACTVS_TAUTO_COUNT>
-1

> <PUBCHEM_COORDINATE_TYPE>
1
5
255

$$$$
