24550
  -OEChem-04042512342D

  3  2  0     0  0  0  0  0  0999 V2000
    2.8660   -0.2500    0.0000 Sn  0  0  0  0  0  0  0  0  0  0  0  0
    3.7320    0.2500    0.0000 F   0  0  0  0  0  0  0  0  0  0  0  0
    2.0000    0.2500    0.0000 F   0  0  0  0  0  0  0  0  0  0  0  0
  1  2  1  0  0  0  0
  1  3  1  0  0  0  0
M  END
> <PUBCHEM_COMPOUND_CID>
24550

> <PUBCHEM_COMPOUND_CANONICALIZED>
1

> <PUBCHEM_CACTVS_COMPLEXITY>
2.8

> <PUBCHEM_CACTVS_HBOND_ACCEPTOR>
2

> <PUBCHEM_CACTVS_HBOND_DONOR>
0

> <PUBCHEM_CACTVS_ROTATABLE_BOND>
0

> <PUBCHEM_CACTVS_SUBSKEYS>
AAADcQAAAYAAAAAAAACAAAAAAAAAAAAAAAAAAAAAAAAAAAAAAAAAAAAAAAAAAAAAAAAAAAAAAAAAAAAAAAAAAAAAAAAAAAAAAAAAAAAAAAAAAAAAAAAAAAAAAAAAAAAAAAAAAAAAAAAAAAAAAAAAAAAAAA==

> <PUBCHEM_IUPAC_OPENEYE_NAME>
difluorotin

> <PUBCHEM_IUPAC_CAS_NAME>
difluorotin

> <PUBCHEM_IUPAC_NAME_MARKUP>
difluorotin

> <PUBCHEM_IUPAC_NAME>
difluorotin

> <PUBCHEM_IUPAC_SYSTEMATIC_NAME>
bis(fluoranyl)tin

> <PUBCHEM_IUPAC_TRADITIONAL_NAME>
difluorotin

> <PUBCHEM_IUPAC_INCHI>
InChI=1S/2FH.Sn/h2*1H;/q;;+2/p-2

> <PUBCHEM_IUPAC_INCHIKEY>
ANOBYBYXJXCGBS-UHFFFAOYSA-L

> <PUBCHEM_EXACT_MASS>
157.899009

> <PUBCHEM_MOLECULAR_FORMULA>
F2Sn

> <PUBCHEM_MOLECULAR_WEIGHT>
156.71

> <PUBCHEM_SMILES>
F[Sn]F

> <PUBCHEM_OPENEYE_CAN_SMILES>
F[Sn]F

> <PUBCHEM_OPENEYE_ISO_SMILES>
F[Sn]F

> <PUBCHEM_CACTVS_TPSA>
0

> <PUBCHEM_MONOISOTOPIC_WEIGHT>
157.899009

> <PUBCHEM_TOTAL_CHARGE>
0

> <PUBCHEM_HEAVY_ATOM_COUNT>
3

> <PUBCHEM_ATOM_DEF_STEREO_COUNT>
0

> <PUBCHEM_ATOM_UDEF_STEREO_COUNT>
0

> <PUBCHEM_BOND_DEF_STEREO_COUNT>
0

> <PUBCHEM_BOND_UDEF_STEREO_COUNT>
0

> <PUBCHEM_ISOTOPIC_ATOM_COUNT>
0

> <PUBCHEM_COMPONENT_COUNT>
1

> <PUBCHEM_CACTVS_TAUTO_COUNT>
-1

> <PUBCHEM_COORDINATE_TYPE>
1
5
255

$$$$
