24593
  -OEChem-04042505482D

  2  1  0     0  0  0  0  0  0999 V2000
    3.0000    0.0000    0.0000 Br  0  0  0  0  0  0  0  0  0  0  0  0
    2.0000    0.0000    0.0000 Cu  0  0  0  0  0  0  0  0  0  0  0  0
  1  2  1  0  0  0  0
M  END
> <PUBCHEM_COMPOUND_CID>
24593

> <PUBCHEM_COMPOUND_CANONICALIZED>
1

> <PUBCHEM_CACTVS_COMPLEXITY>
2

> <PUBCHEM_CACTVS_HBOND_ACCEPTOR>
0

> <PUBCHEM_CACTVS_HBOND_DONOR>
0

> <PUBCHEM_CACTVS_ROTATABLE_BOND>
0

> <PUBCHEM_CACTVS_SUBSKEYS>
AAADcQAAAAAAEAAEAAAAAAAAAAAAAAAAAAAAAAAAAAAAAAAAAAAAAAAAAAAAAAAAAAAAAAAAAAAAAAAAAAAAAAAAAAAAAAAAAAAAAAAAAAAAAAAAAAAAAAAAAAAAAAAAAAAAAAAAAAAAAAAAAAAAAAAAAA==

> <PUBCHEM_IUPAC_OPENEYE_NAME>
bromocopper

> <PUBCHEM_IUPAC_CAS_NAME>
bromocopper

> <PUBCHEM_IUPAC_NAME_MARKUP>
bromocopper

> <PUBCHEM_IUPAC_NAME>
bromocopper

> <PUBCHEM_IUPAC_SYSTEMATIC_NAME>
bromanylcopper

> <PUBCHEM_IUPAC_TRADITIONAL_NAME>
bromocopper

> <PUBCHEM_IUPAC_INCHI>
InChI=1S/BrH.Cu/h1H;/q;+1/p-1

> <PUBCHEM_IUPAC_INCHIKEY>
NKNDPYCGAZPOFS-UHFFFAOYSA-M

> <PUBCHEM_EXACT_MASS>
141.84793

> <PUBCHEM_MOLECULAR_FORMULA>
BrCu

> <PUBCHEM_MOLECULAR_WEIGHT>
143.45

> <PUBCHEM_SMILES>
[Cu]Br

> <PUBCHEM_OPENEYE_CAN_SMILES>
[Cu]Br

> <PUBCHEM_OPENEYE_ISO_SMILES>
[Cu]Br

> <PUBCHEM_CACTVS_TPSA>
0

> <PUBCHEM_MONOISOTOPIC_WEIGHT>
141.84793

> <PUBCHEM_TOTAL_CHARGE>
0

> <PUBCHEM_HEAVY_ATOM_COUNT>
2

> <PUBCHEM_ATOM_DEF_STEREO_COUNT>
0

> <PUBCHEM_ATOM_UDEF_STEREO_COUNT>
0

> <PUBCHEM_BOND_DEF_STEREO_COUNT>
0

> <PUBCHEM_BOND_UDEF_STEREO_COUNT>
0

> <PUBCHEM_ISOTOPIC_ATOM_COUNT>
0

> <PUBCHEM_COMPONENT_COUNT>
1

> <PUBCHEM_CACTVS_TAUTO_COUNT>
-1

> <PUBCHEM_COORDINATE_TYPE>
1
5
255

$$$$
