24832091
  -OEChem-04042505502D

 69 70  0     1  0  0  0  0  0999 V2000
    6.0010   -1.0000    0.0000 O   0  0  0  0  0  0  0  0  0  0  0  0
    7.7331    1.0000    0.0000 O   0  0  0  0  0  0  0  0  0  0  0  0
    5.1350    0.5000    0.0000 O   0  0  0  0  0  0  0  0  0  0  0  0
    7.7331   -2.0000    0.0000 O   0  0  0  0  0  0  0  0  0  0  0  0
    9.4651   -1.0000    0.0000 O   0  0  0  0  0  0  0  0  0  0  0  0
    9.4651    1.0000    0.0000 O   0  0  0  0  0  0  0  0  0  0  0  0
    2.5369    1.0000    0.0000 O   0  0  0  0  0  0  0  0  0  0  0  0
    4.2690   -2.0000    0.0000 O   0  0  0  0  0  0  0  0  0  0  0  0
    2.5369   -1.0000    0.0000 O   0  0  0  0  0  0  0  0  0  0  0  0
    6.0010    2.0000    0.0000 O   0  0  0  0  0  0  0  0  0  0  0  0
    5.1350    2.5000    0.0000 O   0  0  0  0  0  0  0  0  0  0  0  0
    6.8671   -0.5000    0.0000 C   0  0  3  0  0  0  0  0  0  0  0  0
    7.7331   -1.0000    0.0000 C   0  0  3  0  0  0  0  0  0  0  0  0
    6.8671    0.5000    0.0000 C   0  0  3  0  0  0  0  0  0  0  0  0
    8.5991   -0.5000    0.0000 C   0  0  3  0  0  0  0  0  0  0  0  0
    5.1350   -0.5000    0.0000 C   0  0  3  0  0  0  0  0  0  0  0  0
    4.2690   -1.0000    0.0000 C   0  0  3  0  0  0  0  0  0  0  0  0
    8.5991    0.5000    0.0000 C   0  0  3  0  0  0  0  0  0  0  0  0
    3.4030   -0.5000    0.0000 C   0  0  3  0  0  0  0  0  0  0  0  0
    3.4030    0.5000    0.0000 C   0  0  3  0  0  0  0  0  0  0  0  0
    4.2690    1.0000    0.0000 C   0  0  3  0  0  0  0  0  0  0  0  0
    6.0010    1.0000    0.0000 C   0  0  0  0  0  0  0  0  0  0  0  0
    4.2690    2.0000    0.0000 C   0  0  0  0  0  0  0  0  0  0  0  0
    8.5991   -2.5000    0.0000 C   0  0  0  0  0  0  0  0  0  0  0  0
   10.3312   -0.5000    0.0000 C   0  0  0  0  0  0  0  0  0  0  0  0
    9.4651    2.0000    0.0000 C   0  0  0  0  0  0  0  0  0  0  0  0
    2.5369    2.0000    0.0000 C   0  0  0  0  0  0  0  0  0  0  0  0
    8.5991   -3.5000    0.0000 C   0  0  0  0  0  0  0  0  0  0  0  0
    6.8671    2.5000    0.0000 C   0  0  0  0  0  0  0  0  0  0  0  0
   11.1972   -1.0000    0.0000 C   0  0  0  0  0  0  0  0  0  0  0  0
    6.8671    3.5000    0.0000 C   0  0  0  0  0  0  0  0  0  0  0  0
    6.3301   -0.1900    0.0000 H   0  0  0  0  0  0  0  0  0  0  0  0
    7.1962   -1.3100    0.0000 H   0  0  0  0  0  0  0  0  0  0  0  0
    6.8671    1.1200    0.0000 H   0  0  0  0  0  0  0  0  0  0  0  0
    8.5991   -1.1200    0.0000 H   0  0  0  0  0  0  0  0  0  0  0  0
    5.1350   -1.1200    0.0000 H   0  0  0  0  0  0  0  0  0  0  0  0
    3.7320   -1.3100    0.0000 H   0  0  0  0  0  0  0  0  0  0  0  0
    8.5991    1.1200    0.0000 H   0  0  0  0  0  0  0  0  0  0  0  0
    2.8660   -0.1900    0.0000 H   0  0  0  0  0  0  0  0  0  0  0  0
    3.4030    1.1200    0.0000 H   0  0  0  0  0  0  0  0  0  0  0  0
    4.8059    1.3100    0.0000 H   0  0  0  0  0  0  0  0  0  0  0  0
    5.3905    1.1077    0.0000 H   0  0  0  0  0  0  0  0  0  0  0  0
    5.7890    0.4174    0.0000 H   0  0  0  0  0  0  0  0  0  0  0  0
    4.0569    2.5826    0.0000 H   0  0  0  0  0  0  0  0  0  0  0  0
    3.6584    1.8923    0.0000 H   0  0  0  0  0  0  0  0  0  0  0  0
    3.7320   -2.3100    0.0000 H   0  0  0  0  0  0  0  0  0  0  0  0
    9.2097   -2.6077    0.0000 H   0  0  0  0  0  0  0  0  0  0  0  0
    8.8112   -1.9174    0.0000 H   0  0  0  0  0  0  0  0  0  0  0  0
    2.0000   -0.6900    0.0000 H   0  0  0  0  0  0  0  0  0  0  0  0
   10.7297   -0.0251    0.0000 H   0  0  0  0  0  0  0  0  0  0  0  0
    9.9326   -0.0251    0.0000 H   0  0  0  0  0  0  0  0  0  0  0  0
   10.0851    2.0000    0.0000 H   0  0  0  0  0  0  0  0  0  0  0  0
    9.4651    2.6200    0.0000 H   0  0  0  0  0  0  0  0  0  0  0  0
    8.8451    2.0000    0.0000 H   0  0  0  0  0  0  0  0  0  0  0  0
    3.1569    2.0000    0.0000 H   0  0  0  0  0  0  0  0  0  0  0  0
    2.5369    2.6200    0.0000 H   0  0  0  0  0  0  0  0  0  0  0  0
    1.9169    2.0000    0.0000 H   0  0  0  0  0  0  0  0  0  0  0  0
    7.9791   -3.5000    0.0000 H   0  0  0  0  0  0  0  0  0  0  0  0
    8.5991   -4.1200    0.0000 H   0  0  0  0  0  0  0  0  0  0  0  0
    9.2191   -3.5000    0.0000 H   0  0  0  0  0  0  0  0  0  0  0  0
    7.0791    1.9174    0.0000 H   0  0  0  0  0  0  0  0  0  0  0  0
    7.4776    2.6077    0.0000 H   0  0  0  0  0  0  0  0  0  0  0  0
    5.1350    3.1200    0.0000 H   0  0  0  0  0  0  0  0  0  0  0  0
   10.8872   -1.5369    0.0000 H   0  0  0  0  0  0  0  0  0  0  0  0
   11.7341   -1.3100    0.0000 H   0  0  0  0  0  0  0  0  0  0  0  0
   11.5072   -0.4631    0.0000 H   0  0  0  0  0  0  0  0  0  0  0  0
    7.4871    3.5000    0.0000 H   0  0  0  0  0  0  0  0  0  0  0  0
    6.8671    4.1200    0.0000 H   0  0  0  0  0  0  0  0  0  0  0  0
    6.2471    3.5000    0.0000 H   0  0  0  0  0  0  0  0  0  0  0  0
  1 12  1  0  0  0  0
  1 16  1  0  0  0  0
  2 14  1  0  0  0  0
  2 18  1  0  0  0  0
  3 16  1  0  0  0  0
  3 21  1  0  0  0  0
  4 13  1  0  0  0  0
  4 24  1  0  0  0  0
  5 15  1  0  0  0  0
  5 25  1  0  0  0  0
  6 18  1  0  0  0  0
  6 26  1  0  0  0  0
  7 20  1  0  0  0  0
  7 27  1  0  0  0  0
  8 17  1  0  0  0  0
  8 46  1  0  0  0  0
  9 19  1  0  0  0  0
  9 49  1  0  0  0  0
 10 22  1  0  0  0  0
 10 29  1  0  0  0  0
 11 23  1  0  0  0  0
 11 63  1  0  0  0  0
 12 13  1  0  0  0  0
 12 14  1  0  0  0  0
 12 32  1  0  0  0  0
 13 15  1  0  0  0  0
 13 33  1  0  0  0  0
 14 22  1  0  0  0  0
 14 34  1  0  0  0  0
 15 18  1  0  0  0  0
 15 35  1  0  0  0  0
 16 17  1  0  0  0  0
 16 36  1  0  0  0  0
 17 19  1  0  0  0  0
 17 37  1  0  0  0  0
 18 38  1  0  0  0  0
 19 20  1  0  0  0  0
 19 39  1  0  0  0  0
 20 21  1  0  0  0  0
 20 40  1  0  0  0  0
 21 23  1  0  0  0  0
 21 41  1  0  0  0  0
 22 42  1  0  0  0  0
 22 43  1  0  0  0  0
 23 44  1  0  0  0  0
 23 45  1  0  0  0  0
 24 28  1  0  0  0  0
 24 47  1  0  0  0  0
 24 48  1  0  0  0  0
 25 30  1  0  0  0  0
 25 50  1  0  0  0  0
 25 51  1  0  0  0  0
 26 52  1  0  0  0  0
 26 53  1  0  0  0  0
 26 54  1  0  0  0  0
 27 55  1  0  0  0  0
 27 56  1  0  0  0  0
 27 57  1  0  0  0  0
 28 58  1  0  0  0  0
 28 59  1  0  0  0  0
 28 60  1  0  0  0  0
 29 31  1  0  0  0  0
 29 61  1  0  0  0  0
 29 62  1  0  0  0  0
 30 64  1  0  0  0  0
 30 65  1  0  0  0  0
 30 66  1  0  0  0  0
 31 67  1  0  0  0  0
 31 68  1  0  0  0  0
 31 69  1  0  0  0  0
M  END
> <PUBCHEM_COMPOUND_CID>
24832091

> <PUBCHEM_COMPOUND_CANONICALIZED>
1

> <PUBCHEM_CACTVS_COMPLEXITY>
496

> <PUBCHEM_CACTVS_HBOND_ACCEPTOR>
11

> <PUBCHEM_CACTVS_HBOND_DONOR>
3

> <PUBCHEM_CACTVS_ROTATABLE_BOND>
12

> <PUBCHEM_CACTVS_SUBSKEYS>
AAADcfB4PAAAAAAAAAAAAAAAAAAAAAAAAAAkSAAAAAAAAAAAAAAAGgAACAAACBSwgAMCCAAABgAAAAAAAAAAAAAAAAAAAAAAAAAREAIAAAAiQAAFAAAHAAHAYAwAAAAAAAAAAAAAAAAAAAAAAAAAAAAAAA==

> <PUBCHEM_IUPAC_OPENEYE_NAME>
2-[4,5-diethoxy-2-(ethoxymethyl)-6-methoxy-tetrahydropyran-3-yl]oxy-6-(hydroxymethyl)-5-methoxy-tetrahydropyran-3,4-diol

> <PUBCHEM_IUPAC_CAS_NAME>
2-[[4,5-diethoxy-2-(ethoxymethyl)-6-methoxy-3-oxanyl]oxy]-6-(hydroxymethyl)-5-methoxyoxane-3,4-diol

> <PUBCHEM_IUPAC_NAME_MARKUP>
2-[4,5-diethoxy-2-(ethoxymethyl)-6-methoxyoxan-3-yl]oxy-6-(hydroxymethyl)-5-methoxyoxane-3,4-diol

> <PUBCHEM_IUPAC_NAME>
2-[4,5-diethoxy-2-(ethoxymethyl)-6-methoxyoxan-3-yl]oxy-6-(hydroxymethyl)-5-methoxyoxane-3,4-diol

> <PUBCHEM_IUPAC_SYSTEMATIC_NAME>
2-[4,5-diethoxy-2-(ethoxymethyl)-6-methoxy-oxan-3-yl]oxy-6-(hydroxymethyl)-5-methoxy-oxane-3,4-diol

> <PUBCHEM_IUPAC_TRADITIONAL_NAME>
2-[4,5-diethoxy-2-(ethoxymethyl)-6-methoxy-tetrahydropyran-3-yl]oxy-5-methoxy-6-methylol-tetrahydropyran-3,4-diol

> <PUBCHEM_IUPAC_INCHI>
InChI=1S/C20H38O11/c1-6-26-10-12-16(17(27-7-2)18(28-8-3)20(25-5)30-12)31-19-14(23)13(22)15(24-4)11(9-21)29-19/h11-23H,6-10H2,1-5H3

> <PUBCHEM_IUPAC_INCHIKEY>
ZZSNKZQZMQGXPY-UHFFFAOYSA-N

> <PUBCHEM_XLOGP3_AA>
-1.5

> <PUBCHEM_EXACT_MASS>
454.24141202

> <PUBCHEM_MOLECULAR_FORMULA>
C20H38O11

> <PUBCHEM_MOLECULAR_WEIGHT>
454.5

> <PUBCHEM_SMILES>
CCOCC1C(C(C(C(O1)OC)OCC)OCC)OC2C(C(C(C(O2)CO)OC)O)O

> <PUBCHEM_OPENEYE_CAN_SMILES>
CCOCC1C(C(C(C(O1)OC)OCC)OCC)OC2C(C(C(C(O2)CO)OC)O)O

> <PUBCHEM_OPENEYE_ISO_SMILES>
CCOCC1C(C(C(C(O1)OC)OCC)OCC)OC2C(C(C(C(O2)CO)OC)O)O

> <PUBCHEM_CACTVS_TPSA>
135

> <PUBCHEM_MONOISOTOPIC_WEIGHT>
454.24141202

> <PUBCHEM_TOTAL_CHARGE>
0

> <PUBCHEM_HEAVY_ATOM_COUNT>
31

> <PUBCHEM_ATOM_DEF_STEREO_COUNT>
0

> <PUBCHEM_ATOM_UDEF_STEREO_COUNT>
10

> <PUBCHEM_BOND_DEF_STEREO_COUNT>
0

> <PUBCHEM_BOND_UDEF_STEREO_COUNT>
0

> <PUBCHEM_ISOTOPIC_ATOM_COUNT>
0

> <PUBCHEM_COMPONENT_COUNT>
1

> <PUBCHEM_CACTVS_TAUTO_COUNT>
-1

> <PUBCHEM_COORDINATE_TYPE>
1
5
255

> <PUBCHEM_BONDANNOTATIONS>
12  1  3
16  1  3
14  22  3
21  23  3
13  4  3
15  5  3
18  6  3
20  7  3
17  8  3
19  9  3

$$$$
