24846132
  -OEChem-04042505522D

102105  0     1  0  0  0  0  0999 V2000
    7.7331    1.2500    0.0000 O   0  0  0  0  0  0  0  0  0  0  0  0
    6.8671   -1.2500    0.0000 O   0  0  0  0  0  0  0  0  0  0  0  0
    6.8671    2.7500    0.0000 O   0  0  0  0  0  0  0  0  0  0  0  0
    5.1350   -1.2500    0.0000 O   0  0  0  0  0  0  0  0  0  0  0  0
    9.4651    3.2500    0.0000 O   0  0  0  0  0  0  0  0  0  0  0  0
    9.4651    0.2500    0.0000 O   0  0  0  0  0  0  0  0  0  0  0  0
    5.1350   -0.2500    0.0000 O   0  0  0  0  0  0  0  0  0  0  0  0
    5.1350    1.7500    0.0000 O   0  0  0  0  0  0  0  0  0  0  0  0
    6.8671   -3.2500    0.0000 O   0  0  0  0  0  0  0  0  0  0  0  0
   10.7920    1.3633    0.0000 O   0  0  0  0  0  0  0  0  0  0  0  0
    6.8671    4.7500    0.0000 O   0  0  0  0  0  0  0  0  0  0  0  0
    3.4030   -3.2500    0.0000 O   0  0  0  0  0  0  0  0  0  0  0  0
    5.1350   -4.2500    0.0000 O   0  0  0  0  0  0  0  0  0  0  0  0
    8.5991    5.7500    0.0000 O   0  0  0  0  0  0  0  0  0  0  0  0
   13.4044    0.9446    0.0000 O   0  0  0  0  0  0  0  0  0  0  0  0
   10.7507   -1.2821    0.0000 O   0  0  0  0  0  0  0  0  0  0  0  0
   12.7203   -0.9348    0.0000 O   0  0  0  0  0  0  0  0  0  0  0  0
    9.4651    1.2500    0.0000 O   0  0  0  0  0  0  0  0  0  0  0  0
    2.5369   -1.7500    0.0000 O   0  0  0  0  0  0  0  0  0  0  0  0
   11.4760    3.2427    0.0000 O   0  0  0  0  0  0  0  0  0  0  0  0
    7.7331   -5.7500    0.0000 O   0  0  0  0  0  0  0  0  0  0  0  0
    6.8671   -0.2500    0.0000 C   0  0  3  0  0  0  0  0  0  0  0  0
    7.7331    0.2500    0.0000 C   0  0  3  0  0  0  0  0  0  0  0  0
    6.0010    0.2500    0.0000 C   0  0  3  0  0  0  0  0  0  0  0  0
    6.0010    1.2500    0.0000 C   0  0  3  0  0  0  0  0  0  0  0  0
    6.8671    1.7500    0.0000 C   0  0  3  0  0  0  0  0  0  0  0  0
    7.7331    3.2500    0.0000 C   0  0  3  0  0  0  0  0  0  0  0  0
    6.0010   -1.7500    0.0000 C   0  0  3  0  0  0  0  0  0  0  0  0
    6.0010   -2.7500    0.0000 C   0  0  3  0  0  0  0  0  0  0  0  0
    7.7331    4.2500    0.0000 C   0  0  3  0  0  0  0  0  0  0  0  0
    8.5991    2.7500    0.0000 C   0  0  3  0  0  0  0  0  0  0  0  0
    5.1350   -3.2500    0.0000 C   0  0  3  0  0  0  0  0  0  0  0  0
    8.5991   -0.2500    0.0000 C   0  0  0  0  0  0  0  0  0  0  0  0
    4.2690   -2.7500    0.0000 C   0  0  3  0  0  0  0  0  0  0  0  0
    8.5991    4.7500    0.0000 C   0  0  3  0  0  0  0  0  0  0  0  0
    4.2690   -1.7500    0.0000 C   0  0  3  0  0  0  0  0  0  0  0  0
    9.4651    4.2500    0.0000 C   0  0  3  0  0  0  0  0  0  0  0  0
   10.4499    0.4236    0.0000 C   0  0  3  0  0  0  0  0  0  0  0  0
   11.0927   -0.3424    0.0000 C   0  0  3  0  0  0  0  0  0  0  0  0
   12.0775   -0.1687    0.0000 C   0  0  3  0  0  0  0  0  0  0  0  0
   12.4196    0.7709    0.0000 C   0  0  3  0  0  0  0  0  0  0  0  0
    8.5991    1.7500    0.0000 C   0  0  0  0  0  0  0  0  0  0  0  0
   11.7768    1.5370    0.0000 C   0  0  3  0  0  0  0  0  0  0  0  0
    3.4030   -1.2500    0.0000 C   0  0  0  0  0  0  0  0  0  0  0  0
   10.3312    4.7500    0.0000 C   0  0  0  0  0  0  0  0  0  0  0  0
   12.1188    2.4767    0.0000 C   0  0  0  0  0  0  0  0  0  0  0  0
    6.8671   -4.2500    0.0000 C   0  0  0  0  0  0  0  0  0  0  0  0
    3.4030   -4.2500    0.0000 C   0  0  0  0  0  0  0  0  0  0  0  0
    7.7331   -4.7500    0.0000 C   0  0  0  0  0  0  0  0  0  0  0  0
   13.7464    1.8843    0.0000 C   0  0  0  0  0  0  0  0  0  0  0  0
    7.4040   -0.5600    0.0000 H   0  0  0  0  0  0  0  0  0  0  0  0
    8.2700    0.5600    0.0000 H   0  0  0  0  0  0  0  0  0  0  0  0
    6.0010   -0.3700    0.0000 H   0  0  0  0  0  0  0  0  0  0  0  0
    6.5380    0.9400    0.0000 H   0  0  0  0  0  0  0  0  0  0  0  0
    6.3301    2.0600    0.0000 H   0  0  0  0  0  0  0  0  0  0  0  0
    7.1962    3.5600    0.0000 H   0  0  0  0  0  0  0  0  0  0  0  0
    6.0010   -1.1300    0.0000 H   0  0  0  0  0  0  0  0  0  0  0  0
    6.0010   -3.3700    0.0000 H   0  0  0  0  0  0  0  0  0  0  0  0
    8.2700    3.9400    0.0000 H   0  0  0  0  0  0  0  0  0  0  0  0
    9.1360    2.4400    0.0000 H   0  0  0  0  0  0  0  0  0  0  0  0
    4.5981   -3.5600    0.0000 H   0  0  0  0  0  0  0  0  0  0  0  0
    8.2006   -0.7249    0.0000 H   0  0  0  0  0  0  0  0  0  0  0  0
    8.9976   -0.7249    0.0000 H   0  0  0  0  0  0  0  0  0  0  0  0
    4.2690   -3.3700    0.0000 H   0  0  0  0  0  0  0  0  0  0  0  0
    8.0622    5.0600    0.0000 H   0  0  0  0  0  0  0  0  0  0  0  0
    4.2690   -1.1300    0.0000 H   0  0  0  0  0  0  0  0  0  0  0  0
   10.0021    3.9400    0.0000 H   0  0  0  0  0  0  0  0  0  0  0  0
   10.0514    0.8986    0.0000 H   0  0  0  0  0  0  0  0  0  0  0  0
   10.4822   -0.4501    0.0000 H   0  0  0  0  0  0  0  0  0  0  0  0
   11.8655   -0.7514    0.0000 H   0  0  0  0  0  0  0  0  0  0  0  0
   12.6316    1.3536    0.0000 H   0  0  0  0  0  0  0  0  0  0  0  0
    7.9885    1.8577    0.0000 H   0  0  0  0  0  0  0  0  0  0  0  0
    8.3871    1.1674    0.0000 H   0  0  0  0  0  0  0  0  0  0  0  0
   11.3782    2.0119    0.0000 H   0  0  0  0  0  0  0  0  0  0  0  0
    4.5981    0.0600    0.0000 H   0  0  0  0  0  0  0  0  0  0  0  0
    4.5981    1.4400    0.0000 H   0  0  0  0  0  0  0  0  0  0  0  0
    3.8015   -0.7751    0.0000 H   0  0  0  0  0  0  0  0  0  0  0  0
    3.0044   -0.7751    0.0000 H   0  0  0  0  0  0  0  0  0  0  0  0
   10.6412    4.2131    0.0000 H   0  0  0  0  0  0  0  0  0  0  0  0
   10.8681    5.0600    0.0000 H   0  0  0  0  0  0  0  0  0  0  0  0
   10.0212    5.2869    0.0000 H   0  0  0  0  0  0  0  0  0  0  0  0
    6.8671    5.3700    0.0000 H   0  0  0  0  0  0  0  0  0  0  0  0
    4.5981   -4.5600    0.0000 H   0  0  0  0  0  0  0  0  0  0  0  0
    9.1360    6.0600    0.0000 H   0  0  0  0  0  0  0  0  0  0  0  0
   12.6557    2.1667    0.0000 H   0  0  0  0  0  0  0  0  0  0  0  0
   12.5173    2.9516    0.0000 H   0  0  0  0  0  0  0  0  0  0  0  0
    6.2565   -4.1423    0.0000 H   0  0  0  0  0  0  0  0  0  0  0  0
    6.6550   -4.8326    0.0000 H   0  0  0  0  0  0  0  0  0  0  0  0
   10.1401   -1.3898    0.0000 H   0  0  0  0  0  0  0  0  0  0  0  0
   13.3309   -0.8271    0.0000 H   0  0  0  0  0  0  0  0  0  0  0  0
   10.0021    1.5600    0.0000 H   0  0  0  0  0  0  0  0  0  0  0  0
    2.7830   -4.2500    0.0000 H   0  0  0  0  0  0  0  0  0  0  0  0
    3.4030   -4.8700    0.0000 H   0  0  0  0  0  0  0  0  0  0  0  0
    4.0230   -4.2500    0.0000 H   0  0  0  0  0  0  0  0  0  0  0  0
    2.0000   -1.4400    0.0000 H   0  0  0  0  0  0  0  0  0  0  0  0
    8.3437   -4.8577    0.0000 H   0  0  0  0  0  0  0  0  0  0  0  0
    7.9451   -4.1674    0.0000 H   0  0  0  0  0  0  0  0  0  0  0  0
   14.3290    1.6722    0.0000 H   0  0  0  0  0  0  0  0  0  0  0  0
   13.9584    2.4669    0.0000 H   0  0  0  0  0  0  0  0  0  0  0  0
   13.1638    2.0963    0.0000 H   0  0  0  0  0  0  0  0  0  0  0  0
   11.6881    3.8253    0.0000 H   0  0  0  0  0  0  0  0  0  0  0  0
    8.2700   -6.0600    0.0000 H   0  0  0  0  0  0  0  0  0  0  0  0
  1 23  1  0  0  0  0
  1 26  1  0  0  0  0
  2 22  1  0  0  0  0
  2 28  1  0  0  0  0
  3 26  1  0  0  0  0
  3 27  1  0  0  0  0
  4 28  1  0  0  0  0
  4 36  1  0  0  0  0
  5 31  1  0  0  0  0
  5 37  1  0  0  0  0
  6 33  1  0  0  0  0
  6 38  1  0  0  0  0
  7 24  1  0  0  0  0
  7 75  1  0  0  0  0
  8 25  1  0  0  0  0
  8 76  1  0  0  0  0
  9 29  1  0  0  0  0
  9 47  1  0  0  0  0
 10 38  1  0  0  0  0
 10 43  1  0  0  0  0
 11 30  1  0  0  0  0
 11 82  1  0  0  0  0
 12 34  1  0  0  0  0
 12 48  1  0  0  0  0
 13 32  1  0  0  0  0
 13 83  1  0  0  0  0
 14 35  1  0  0  0  0
 14 84  1  0  0  0  0
 15 41  1  0  0  0  0
 15 50  1  0  0  0  0
 16 39  1  0  0  0  0
 16 89  1  0  0  0  0
 17 40  1  0  0  0  0
 17 90  1  0  0  0  0
 18 42  1  0  0  0  0
 18 91  1  0  0  0  0
 19 44  1  0  0  0  0
 19 95  1  0  0  0  0
 20 46  1  0  0  0  0
 20101  1  0  0  0  0
 21 49  1  0  0  0  0
 21102  1  0  0  0  0
 22 23  1  0  0  0  0
 22 24  1  0  0  0  0
 22 51  1  0  0  0  0
 23 33  1  0  0  0  0
 23 52  1  0  0  0  0
 24 25  1  0  0  0  0
 24 53  1  0  0  0  0
 25 26  1  0  0  0  0
 25 54  1  0  0  0  0
 26 55  1  0  0  0  0
 27 30  1  0  0  0  0
 27 31  1  0  0  0  0
 27 56  1  0  0  0  0
 28 29  1  0  0  0  0
 28 57  1  0  0  0  0
 29 32  1  0  0  0  0
 29 58  1  0  0  0  0
 30 35  1  0  0  0  0
 30 59  1  0  0  0  0
 31 42  1  0  0  0  0
 31 60  1  0  0  0  0
 32 34  1  0  0  0  0
 32 61  1  0  0  0  0
 33 62  1  0  0  0  0
 33 63  1  0  0  0  0
 34 36  1  0  0  0  0
 34 64  1  0  0  0  0
 35 37  1  0  0  0  0
 35 65  1  0  0  0  0
 36 44  1  0  0  0  0
 36 66  1  0  0  0  0
 37 45  1  0  0  0  0
 37 67  1  0  0  0  0
 38 39  1  0  0  0  0
 38 68  1  0  0  0  0
 39 40  1  0  0  0  0
 39 69  1  0  0  0  0
 40 41  1  0  0  0  0
 40 70  1  0  0  0  0
 41 43  1  0  0  0  0
 41 71  1  0  0  0  0
 42 72  1  0  0  0  0
 42 73  1  0  0  0  0
 43 46  1  0  0  0  0
 43 74  1  0  0  0  0
 44 77  1  0  0  0  0
 44 78  1  0  0  0  0
 45 79  1  0  0  0  0
 45 80  1  0  0  0  0
 45 81  1  0  0  0  0
 46 85  1  0  0  0  0
 46 86  1  0  0  0  0
 47 49  1  0  0  0  0
 47 87  1  0  0  0  0
 47 88  1  0  0  0  0
 48 92  1  0  0  0  0
 48 93  1  0  0  0  0
 48 94  1  0  0  0  0
 49 96  1  0  0  0  0
 49 97  1  0  0  0  0
 50 98  1  0  0  0  0
 50 99  1  0  0  0  0
 50100  1  0  0  0  0
M  END
> <PUBCHEM_COMPOUND_CID>
24846132

> <PUBCHEM_COMPOUND_CANONICALIZED>
1

> <PUBCHEM_CACTVS_COMPLEXITY>
999

> <PUBCHEM_CACTVS_HBOND_ACCEPTOR>
21

> <PUBCHEM_CACTVS_HBOND_DONOR>
11

> <PUBCHEM_CACTVS_ROTATABLE_BOND>
15

> <PUBCHEM_CACTVS_SUBSKEYS>
AAADcfB4PgAAAAAAAAAAAAAAAAAAAAAAAAAkSJEgAAAAAAAAAAAAGgAACAAACBSwgAMCCAAABgAAAAAAAAAAAAAAAAAAAAAAAAAREAIAAAAiQAAFAAAHAAHA4CwAAAAAAAAAAAAAAAAAAAAAAAAAAAAAAA==

> <PUBCHEM_IUPAC_OPENEYE_NAME>
5-[6-[[3,4-dihydroxy-6-(hydroxymethyl)-5-methoxy-tetrahydropyran-2-yl]oxymethyl]-3,4-dihydroxy-5-[4-hydroxy-3-(2-hydroxyethoxy)-6-(hydroxymethyl)-5-methoxy-tetrahydropyran-2-yl]oxy-tetrahydropyran-2-yl]oxy-6-(hydroxymethyl)-2-methyl-tetrahydropyran-3,4-diol

> <PUBCHEM_IUPAC_CAS_NAME>
5-[[6-[[3,4-dihydroxy-6-(hydroxymethyl)-5-methoxy-2-oxanyl]oxymethyl]-3,4-dihydroxy-5-[[4-hydroxy-3-(2-hydroxyethoxy)-6-(hydroxymethyl)-5-methoxy-2-oxanyl]oxy]-2-oxanyl]oxy]-6-(hydroxymethyl)-2-methyloxane-3,4-diol

> <PUBCHEM_IUPAC_NAME_MARKUP>
5-[6-[[3,4-dihydroxy-6-(hydroxymethyl)-5-methoxyoxan-2-yl]oxymethyl]-3,4-dihydroxy-5-[4-hydroxy-3-(2-hydroxyethoxy)-6-(hydroxymethyl)-5-methoxyoxan-2-yl]oxyoxan-2-yl]oxy-6-(hydroxymethyl)-2-methyloxane-3,4-diol

> <PUBCHEM_IUPAC_NAME>
5-[6-[[3,4-dihydroxy-6-(hydroxymethyl)-5-methoxyoxan-2-yl]oxymethyl]-3,4-dihydroxy-5-[4-hydroxy-3-(2-hydroxyethoxy)-6-(hydroxymethyl)-5-methoxyoxan-2-yl]oxyoxan-2-yl]oxy-6-(hydroxymethyl)-2-methyloxane-3,4-diol

> <PUBCHEM_IUPAC_SYSTEMATIC_NAME>
5-[5-[3-(2-hydroxyethyloxy)-6-(hydroxymethyl)-5-methoxy-4-oxidanyl-oxan-2-yl]oxy-6-[[6-(hydroxymethyl)-5-methoxy-3,4-bis(oxidanyl)oxan-2-yl]oxymethyl]-3,4-bis(oxidanyl)oxan-2-yl]oxy-6-(hydroxymethyl)-2-methyl-oxane-3,4-diol

> <PUBCHEM_IUPAC_TRADITIONAL_NAME>
5-[6-[(3,4-dihydroxy-5-methoxy-6-methylol-tetrahydropyran-2-yl)oxymethyl]-3,4-dihydroxy-5-[4-hydroxy-3-(2-hydroxyethoxy)-5-methoxy-6-methylol-tetrahydropyran-2-yl]oxy-tetrahydropyran-2-yl]oxy-2-methyl-6-methylol-tetrahydropyran-3,4-diol

> <PUBCHEM_IUPAC_INCHI>
InChI=1S/C29H52O21/c1-10-15(34)16(35)24(13(8-33)45-10)49-28-20(39)18(37)25(50-29-26(43-5-4-30)21(40)23(42-3)12(7-32)47-29)14(48-28)9-44-27-19(38)17(36)22(41-2)11(6-31)46-27/h10-40H,4-9H2,1-3H3

> <PUBCHEM_IUPAC_INCHIKEY>
CWSZBVAUYPTXTG-UHFFFAOYSA-N

> <PUBCHEM_XLOGP3_AA>
-7.7

> <PUBCHEM_EXACT_MASS>
736.30010866

> <PUBCHEM_MOLECULAR_FORMULA>
C29H52O21

> <PUBCHEM_MOLECULAR_WEIGHT>
736.7

> <PUBCHEM_SMILES>
CC1C(C(C(C(O1)CO)OC2C(C(C(C(O2)COC3C(C(C(C(O3)CO)OC)O)O)OC4C(C(C(C(O4)CO)OC)O)OCCO)O)O)O)O

> <PUBCHEM_OPENEYE_CAN_SMILES>
CC1C(C(C(C(O1)CO)OC2C(C(C(C(O2)COC3C(C(C(C(O3)CO)OC)O)O)OC4C(C(C(C(O4)CO)OC)O)OCCO)O)O)O)O

> <PUBCHEM_OPENEYE_ISO_SMILES>
CC1C(C(C(C(O1)CO)OC2C(C(C(C(O2)COC3C(C(C(C(O3)CO)OC)O)O)OC4C(C(C(C(O4)CO)OC)O)OCCO)O)O)O)O

> <PUBCHEM_CACTVS_TPSA>
315

> <PUBCHEM_MONOISOTOPIC_WEIGHT>
736.30010866

> <PUBCHEM_TOTAL_CHARGE>
0

> <PUBCHEM_HEAVY_ATOM_COUNT>
50

> <PUBCHEM_ATOM_DEF_STEREO_COUNT>
0

> <PUBCHEM_ATOM_UDEF_STEREO_COUNT>
20

> <PUBCHEM_BOND_DEF_STEREO_COUNT>
0

> <PUBCHEM_BOND_UDEF_STEREO_COUNT>
0

> <PUBCHEM_ISOTOPIC_ATOM_COUNT>
0

> <PUBCHEM_COMPONENT_COUNT>
1

> <PUBCHEM_CACTVS_TAUTO_COUNT>
-1

> <PUBCHEM_COORDINATE_TYPE>
1
5
255

> <PUBCHEM_BONDANNOTATIONS>
30  11  3
34  12  3
32  13  3
35  14  3
41  15  3
39  16  3
40  17  3
22  2  3
28  2  3
23  33  3
26  3  3
27  3  3
31  42  3
36  44  3
37  45  3
43  46  3
38  6  3
24  7  3
25  8  3
29  9  3

$$$$
