2735139
  -OEChem-04042513082D

121122  0     1  0  0  0  0  0999 V2000
    7.2510    0.5498    0.0000 O   0  0  0  0  0  0  0  0  0  0  0  0
    8.0622   -0.6087    0.0000 O   0  0  0  0  0  0  0  0  0  0  0  0
    6.3301   -0.6087    0.0000 O   0  0  0  0  0  0  0  0  0  0  0  0
    9.6956    1.3983    0.0000 O   0  0  0  0  0  0  0  0  0  0  0  0
    8.1843    2.9632    0.0000 O   0  0  0  0  0  0  0  0  0  0  0  0
    8.0622   -2.6087    0.0000 O   0  0  0  0  0  0  0  0  0  0  0  0
    6.3301   -3.6087    0.0000 O   0  0  0  0  0  0  0  0  0  0  0  0
    4.5981   -2.6087    0.0000 O   0  0  0  0  0  0  0  0  0  0  0  0
    9.1537   -1.0927    0.0000 O   0  0  0  0  0  0  0  0  0  0  0  0
    6.1940    3.0089    0.0000 O   0  0  0  0  0  0  0  0  0  0  0  0
    4.5981    0.3913    0.0000 O   0  0  0  0  0  0  0  0  0  0  0  0
    9.4545    3.1135    0.0000 O   0  0  0  0  0  0  0  0  0  0  0  0
    6.8575    4.0766    0.0000 O   0  0  0  0  0  0  0  0  0  0  0  0
    7.1962   -4.1087    0.0000 O   0  0  0  0  0  0  0  0  0  0  0  0
    4.5981   -3.6087    0.0000 O   0  0  0  0  0  0  0  0  0  0  0  0
    3.7320   -1.1087    0.0000 O   0  0  0  0  0  0  0  0  0  0  0  0
   10.0715   -2.5616    0.0000 O   0  0  0  0  0  0  0  0  0  0  0  0
    4.4630    2.9485    0.0000 O   0  0  0  0  0  0  0  0  0  0  0  0
    2.8660    0.3913    0.0000 O   0  0  0  0  0  0  0  0  0  0  0  0
    8.2358    0.3761    0.0000 C   0  0  1  0  0  0  0  0  0  0  0  0
    8.7053    1.2591    0.0000 C   0  0  2  0  0  0  0  0  0  0  0  0
    8.0106    1.9784    0.0000 C   0  0  1  0  0  0  0  0  0  0  0  0
    7.1118    1.5401    0.0000 C   0  0  1  0  0  0  0  0  0  0  0  0
    7.1962   -1.1087    0.0000 C   0  0  1  0  0  0  0  0  0  0  0  0
    7.1962   -2.1087    0.0000 C   0  0  1  0  0  0  0  0  0  0  0  0
    6.3301   -2.6087    0.0000 C   0  0  2  0  0  0  0  0  0  0  0  0
    5.4641   -2.1087    0.0000 C   0  0  1  0  0  0  0  0  0  0  0  0
    9.1188   -0.0933    0.0000 C   0  0  0  0  0  0  0  0  0  0  0  0
    5.4641   -1.1087    0.0000 C   0  0  1  0  0  0  0  0  0  0  0  0
    6.2289    2.0095    0.0000 C   0  0  0  0  0  0  0  0  0  0  0  0
    4.5981   -0.6087    0.0000 C   0  0  0  0  0  0  0  0  0  0  0  0
   10.0702    2.3254    0.0000 C   0  0  0  0  0  0  0  0  0  0  0  0
    7.8423    3.9029    0.0000 C   0  0  0  0  0  0  0  0  0  0  0  0
   11.0604    2.4646    0.0000 C   0  0  0  0  0  0  0  0  0  0  0  0
    8.0622   -3.6087    0.0000 C   0  0  0  0  0  0  0  0  0  0  0  0
    8.4850    4.6690    0.0000 C   0  0  0  0  0  0  0  0  0  0  0  0
    5.4641   -4.1087    0.0000 C   0  0  0  0  0  0  0  0  0  0  0  0
    3.7320   -2.1087    0.0000 C   0  0  0  0  0  0  0  0  0  0  0  0
   10.0366   -1.5622    0.0000 C   0  0  0  0  0  0  0  0  0  0  0  0
    8.9282   -4.1087    0.0000 C   0  0  0  0  0  0  0  0  0  0  0  0
    5.4641   -5.1087    0.0000 C   0  0  0  0  0  0  0  0  0  0  0  0
    2.8660   -2.6087    0.0000 C   0  0  0  0  0  0  0  0  0  0  0  0
   10.8847   -1.0323    0.0000 C   0  0  0  0  0  0  0  0  0  0  0  0
    5.3110    3.4784    0.0000 C   0  0  0  0  0  0  0  0  0  0  0  0
   11.4350    3.3918    0.0000 C   0  0  0  0  0  0  0  0  0  0  0  0
   11.6761    1.6766    0.0000 C   0  0  0  0  0  0  0  0  0  0  0  0
    8.1430    5.6087    0.0000 C   0  0  0  0  0  0  0  0  0  0  0  0
    9.4699    4.4953    0.0000 C   0  0  0  0  0  0  0  0  0  0  0  0
    3.7320    0.8913    0.0000 C   0  0  0  0  0  0  0  0  0  0  0  0
    8.9282   -5.1087    0.0000 C   0  0  0  0  0  0  0  0  0  0  0  0
    9.7942   -3.6087    0.0000 C   0  0  0  0  0  0  0  0  0  0  0  0
    4.5981   -5.6087    0.0000 C   0  0  0  0  0  0  0  0  0  0  0  0
    6.3301   -5.6087    0.0000 C   0  0  0  0  0  0  0  0  0  0  0  0
    2.0000   -2.1087    0.0000 C   0  0  0  0  0  0  0  0  0  0  0  0
    2.8660   -3.6087    0.0000 C   0  0  0  0  0  0  0  0  0  0  0  0
   11.7676   -1.5017    0.0000 C   0  0  0  0  0  0  0  0  0  0  0  0
   10.8498   -0.0329    0.0000 C   0  0  0  0  0  0  0  0  0  0  0  0
    5.2762    4.4778    0.0000 C   0  0  0  0  0  0  0  0  0  0  0  0
    3.5584    1.8761    0.0000 C   0  0  0  0  0  0  0  0  0  0  0  0
    8.9072    1.8453    0.0000 H   0  0  0  0  0  0  0  0  0  0  0  0
    8.6036    2.1597    0.0000 H   0  0  0  0  0  0  0  0  0  0  0  0
    6.6040    1.1844    0.0000 H   0  0  0  0  0  0  0  0  0  0  0  0
    7.7331   -1.4187    0.0000 H   0  0  0  0  0  0  0  0  0  0  0  0
    7.1962   -2.7287    0.0000 H   0  0  0  0  0  0  0  0  0  0  0  0
    5.7932   -2.9187    0.0000 H   0  0  0  0  0  0  0  0  0  0  0  0
    4.9272   -1.7987    0.0000 H   0  0  0  0  0  0  0  0  0  0  0  0
    9.7327   -0.1796    0.0000 H   0  0  0  0  0  0  0  0  0  0  0  0
    9.3104    0.4963    0.0000 H   0  0  0  0  0  0  0  0  0  0  0  0
    5.4641   -0.4887    0.0000 H   0  0  0  0  0  0  0  0  0  0  0  0
    5.6149    2.0958    0.0000 H   0  0  0  0  0  0  0  0  0  0  0  0
    6.0373    1.4199    0.0000 H   0  0  0  0  0  0  0  0  0  0  0  0
    3.9875   -0.5010    0.0000 H   0  0  0  0  0  0  0  0  0  0  0  0
    4.3860   -1.1913    0.0000 H   0  0  0  0  0  0  0  0  0  0  0  0
   10.6787    2.9532    0.0000 H   0  0  0  0  0  0  0  0  0  0  0  0
    8.6971    4.0864    0.0000 H   0  0  0  0  0  0  0  0  0  0  0  0
    9.4651   -4.4187    0.0000 H   0  0  0  0  0  0  0  0  0  0  0  0
    5.4641   -5.7287    0.0000 H   0  0  0  0  0  0  0  0  0  0  0  0
    2.8660   -1.9887    0.0000 H   0  0  0  0  0  0  0  0  0  0  0  0
   11.4105   -0.7037    0.0000 H   0  0  0  0  0  0  0  0  0  0  0  0
   12.0099    3.1596    0.0000 H   0  0  0  0  0  0  0  0  0  0  0  0
   11.6673    3.9667    0.0000 H   0  0  0  0  0  0  0  0  0  0  0  0
   10.8602    3.6241    0.0000 H   0  0  0  0  0  0  0  0  0  0  0  0
   11.1875    1.2949    0.0000 H   0  0  0  0  0  0  0  0  0  0  0  0
   12.0578    1.1880    0.0000 H   0  0  0  0  0  0  0  0  0  0  0  0
   12.1647    2.0583    0.0000 H   0  0  0  0  0  0  0  0  0  0  0  0
    8.7256    5.8207    0.0000 H   0  0  0  0  0  0  0  0  0  0  0  0
    7.9310    6.1913    0.0000 H   0  0  0  0  0  0  0  0  0  0  0  0
    7.5604    5.3966    0.0000 H   0  0  0  0  0  0  0  0  0  0  0  0
    9.3622    3.8847    0.0000 H   0  0  0  0  0  0  0  0  0  0  0  0
   10.0804    4.3877    0.0000 H   0  0  0  0  0  0  0  0  0  0  0  0
    9.5775    5.1059    0.0000 H   0  0  0  0  0  0  0  0  0  0  0  0
    8.3082   -5.1087    0.0000 H   0  0  0  0  0  0  0  0  0  0  0  0
    8.9282   -5.7287    0.0000 H   0  0  0  0  0  0  0  0  0  0  0  0
    9.5482   -5.1087    0.0000 H   0  0  0  0  0  0  0  0  0  0  0  0
   10.1042   -4.1456    0.0000 H   0  0  0  0  0  0  0  0  0  0  0  0
   10.3312   -3.2987    0.0000 H   0  0  0  0  0  0  0  0  0  0  0  0
    9.4842   -3.0717    0.0000 H   0  0  0  0  0  0  0  0  0  0  0  0
    4.2881   -5.0717    0.0000 H   0  0  0  0  0  0  0  0  0  0  0  0
    4.0611   -5.9187    0.0000 H   0  0  0  0  0  0  0  0  0  0  0  0
    4.9081   -6.1456    0.0000 H   0  0  0  0  0  0  0  0  0  0  0  0
    6.0201   -6.1456    0.0000 H   0  0  0  0  0  0  0  0  0  0  0  0
    6.8671   -5.9187    0.0000 H   0  0  0  0  0  0  0  0  0  0  0  0
    6.6401   -5.0717    0.0000 H   0  0  0  0  0  0  0  0  0  0  0  0
    2.3100   -1.5717    0.0000 H   0  0  0  0  0  0  0  0  0  0  0  0
    1.4631   -1.7987    0.0000 H   0  0  0  0  0  0  0  0  0  0  0  0
    1.6900   -2.6456    0.0000 H   0  0  0  0  0  0  0  0  0  0  0  0
    2.2460   -3.6087    0.0000 H   0  0  0  0  0  0  0  0  0  0  0  0
    2.8660   -4.2287    0.0000 H   0  0  0  0  0  0  0  0  0  0  0  0
    3.4860   -3.6087    0.0000 H   0  0  0  0  0  0  0  0  0  0  0  0
   11.4765   -2.0492    0.0000 H   0  0  0  0  0  0  0  0  0  0  0  0
   12.3150   -1.7928    0.0000 H   0  0  0  0  0  0  0  0  0  0  0  0
   12.0587   -0.9543    0.0000 H   0  0  0  0  0  0  0  0  0  0  0  0
   11.4694   -0.0112    0.0000 H   0  0  0  0  0  0  0  0  0  0  0  0
   10.8281    0.5867    0.0000 H   0  0  0  0  0  0  0  0  0  0  0  0
   10.2301   -0.0545    0.0000 H   0  0  0  0  0  0  0  0  0  0  0  0
    5.8958    4.4994    0.0000 H   0  0  0  0  0  0  0  0  0  0  0  0
    5.2545    5.0974    0.0000 H   0  0  0  0  0  0  0  0  0  0  0  0
    4.6565    4.4561    0.0000 H   0  0  0  0  0  0  0  0  0  0  0  0
    4.1690    1.9838    0.0000 H   0  0  0  0  0  0  0  0  0  0  0  0
    3.4507    2.4867    0.0000 H   0  0  0  0  0  0  0  0  0  0  0  0
    2.9478    1.7685    0.0000 H   0  0  0  0  0  0  0  0  0  0  0  0
  1 20  1  0  0  0  0
  1 23  1  0  0  0  0
 20  2  1  6  0  0  0
 24  2  1  6  0  0  0
  3 24  1  0  0  0  0
  3 29  1  0  0  0  0
 21  4  1  6  0  0  0
  4 32  1  0  0  0  0
 22  5  1  1  0  0  0
  5 33  1  0  0  0  0
 25  6  1  6  0  0  0
  6 35  1  0  0  0  0
 26  7  1  1  0  0  0
  7 37  1  0  0  0  0
 27  8  1  6  0  0  0
  8 38  1  0  0  0  0
  9 28  1  0  0  0  0
  9 39  1  0  0  0  0
 10 30  1  0  0  0  0
 10 44  1  0  0  0  0
 11 31  1  0  0  0  0
 11 49  1  0  0  0  0
 12 32  2  0  0  0  0
 13 33  2  0  0  0  0
 14 35  2  0  0  0  0
 15 37  2  0  0  0  0
 16 38  2  0  0  0  0
 17 39  2  0  0  0  0
 18 44  2  0  0  0  0
 19 49  2  0  0  0  0
 20 21  1  0  0  0  0
 20 28  1  0  0  0  0
 21 22  1  0  0  0  0
 21 60  1  0  0  0  0
 22 23  1  0  0  0  0
 22 61  1  0  0  0  0
 23 30  1  6  0  0  0
 23 62  1  0  0  0  0
 24 25  1  0  0  0  0
 24 63  1  0  0  0  0
 25 26  1  0  0  0  0
 25 64  1  0  0  0  0
 26 27  1  0  0  0  0
 26 65  1  0  0  0  0
 27 29  1  0  0  0  0
 27 66  1  0  0  0  0
 28 67  1  0  0  0  0
 28 68  1  0  0  0  0
 29 31  1  1  0  0  0
 29 69  1  0  0  0  0
 30 70  1  0  0  0  0
 30 71  1  0  0  0  0
 31 72  1  0  0  0  0
 31 73  1  0  0  0  0
 32 34  1  0  0  0  0
 33 36  1  0  0  0  0
 34 45  1  0  0  0  0
 34 46  1  0  0  0  0
 34 74  1  0  0  0  0
 35 40  1  0  0  0  0
 36 47  1  0  0  0  0
 36 48  1  0  0  0  0
 36 75  1  0  0  0  0
 37 41  1  0  0  0  0
 38 42  1  0  0  0  0
 39 43  1  0  0  0  0
 40 50  1  0  0  0  0
 40 51  1  0  0  0  0
 40 76  1  0  0  0  0
 41 52  1  0  0  0  0
 41 53  1  0  0  0  0
 41 77  1  0  0  0  0
 42 54  1  0  0  0  0
 42 55  1  0  0  0  0
 42 78  1  0  0  0  0
 43 56  1  0  0  0  0
 43 57  1  0  0  0  0
 43 79  1  0  0  0  0
 44 58  1  0  0  0  0
 45 80  1  0  0  0  0
 45 81  1  0  0  0  0
 45 82  1  0  0  0  0
 46 83  1  0  0  0  0
 46 84  1  0  0  0  0
 46 85  1  0  0  0  0
 47 86  1  0  0  0  0
 47 87  1  0  0  0  0
 47 88  1  0  0  0  0
 48 89  1  0  0  0  0
 48 90  1  0  0  0  0
 48 91  1  0  0  0  0
 49 59  1  0  0  0  0
 50 92  1  0  0  0  0
 50 93  1  0  0  0  0
 50 94  1  0  0  0  0
 51 95  1  0  0  0  0
 51 96  1  0  0  0  0
 51 97  1  0  0  0  0
 52 98  1  0  0  0  0
 52 99  1  0  0  0  0
 52100  1  0  0  0  0
 53101  1  0  0  0  0
 53102  1  0  0  0  0
 53103  1  0  0  0  0
 54104  1  0  0  0  0
 54105  1  0  0  0  0
 54106  1  0  0  0  0
 55107  1  0  0  0  0
 55108  1  0  0  0  0
 55109  1  0  0  0  0
 56110  1  0  0  0  0
 56111  1  0  0  0  0
 56112  1  0  0  0  0
 57113  1  0  0  0  0
 57114  1  0  0  0  0
 57115  1  0  0  0  0
 58116  1  0  0  0  0
 58117  1  0  0  0  0
 58118  1  0  0  0  0
 59119  1  0  0  0  0
 59120  1  0  0  0  0
 59121  1  0  0  0  0
M  END
> <PUBCHEM_COMPOUND_CID>
2735139

> <PUBCHEM_COMPOUND_CANONICALIZED>
1

> <PUBCHEM_CACTVS_COMPLEXITY>
1500

> <PUBCHEM_CACTVS_HBOND_ACCEPTOR>
19

> <PUBCHEM_CACTVS_HBOND_DONOR>
0

> <PUBCHEM_CACTVS_ROTATABLE_BOND>
27

> <PUBCHEM_CACTVS_SUBSKEYS>
AAADcfB8PgAAAAAAAAAAAAAAAAAAASAAAAAkAAAAAAAAAAAAAAAAGgAAAAAADRSwgAMCCAAABAAIAACQCAAAAAAAAAAAAAEAAAARAAIAAAAiAAAFAAAGAAHAYAwAAAAAAAAAAAAAAAAAAAAAAAAAAAAAAA==

> <PUBCHEM_IUPAC_OPENEYE_NAME>
[(2S,3S,4R,5R)-5-(acetoxymethyl)-2-[(2R,3R,4S,5R,6R)-6-(acetoxymethyl)-3,4,5-tris(2-methylpropanoyloxy)tetrahydropyran-2-yl]oxy-3,4-bis(2-methylpropanoyloxy)tetrahydrofuran-2-yl]methyl 2-methylpropanoate

> <PUBCHEM_IUPAC_CAS_NAME>
2-methylpropanoic acid [(2S,3S,4R,5R)-5-(acetyloxymethyl)-2-[[(2R,3R,4S,5R,6R)-6-(acetyloxymethyl)-3,4,5-tris(2-methyl-1-oxopropoxy)-2-oxanyl]oxy]-3,4-bis(2-methyl-1-oxopropoxy)-2-oxolanyl]methyl ester

> <PUBCHEM_IUPAC_NAME_MARKUP>
[(2<I>S</I>,3<I>S</I>,4<I>R</I>,5<I>R</I>)-5-(acetyloxymethyl)-2-[(2<I>R</I>,3<I>R</I>,4<I>S</I>,5<I>R</I>,6<I>R</I>)-6-(acetyloxymethyl)-3,4,5-tris(2-methylpropanoyloxy)oxan-2-yl]oxy-3,4-bis(2-methylpropanoyloxy)oxolan-2-yl]methyl 2-methylpropanoate

> <PUBCHEM_IUPAC_NAME>
[(2S,3S,4R,5R)-5-(acetyloxymethyl)-2-[(2R,3R,4S,5R,6R)-6-(acetyloxymethyl)-3,4,5-tris(2-methylpropanoyloxy)oxan-2-yl]oxy-3,4-bis(2-methylpropanoyloxy)oxolan-2-yl]methyl 2-methylpropanoate

> <PUBCHEM_IUPAC_SYSTEMATIC_NAME>
[(2S,3S,4R,5R)-5-(acetyloxymethyl)-2-[(2R,3R,4S,5R,6R)-6-(acetyloxymethyl)-3,4,5-tris(2-methylpropanoyloxy)oxan-2-yl]oxy-3,4-bis(2-methylpropanoyloxy)oxolan-2-yl]methyl 2-methylpropanoate

> <PUBCHEM_IUPAC_TRADITIONAL_NAME>
2-methylpropionic acid [(2S,3S,4R,5R)-5-(acetoxymethyl)-2-[(2R,3R,4S,5R,6R)-6-(acetoxymethyl)-3,4,5-triisobutyryloxy-tetrahydropyran-2-yl]oxy-3,4-diisobutyryloxy-tetrahydrofuran-2-yl]methyl ester

> <PUBCHEM_IUPAC_INCHI>
InChI=1S/C40H62O19/c1-18(2)33(43)51-17-40(32(57-38(48)23(11)12)29(54-35(45)20(5)6)27(58-40)16-50-25(14)42)59-39-31(56-37(47)22(9)10)30(55-36(46)21(7)8)28(53-34(44)19(3)4)26(52-39)15-49-24(13)41/h18-23,26-32,39H,15-17H2,1-14H3/t26-,27-,28-,29-,30+,31-,32+,39-,40+/m1/s1

> <PUBCHEM_IUPAC_INCHIKEY>
ZNEBZIJCDDCNRC-SWTLDUCYSA-N

> <PUBCHEM_XLOGP3_AA>
5.3

> <PUBCHEM_EXACT_MASS>
846.38852974

> <PUBCHEM_MOLECULAR_FORMULA>
C40H62O19

> <PUBCHEM_MOLECULAR_WEIGHT>
846.9

> <PUBCHEM_SMILES>
CC(C)C(=O)OC[C@@]1([C@H]([C@@H]([C@H](O1)COC(=O)C)OC(=O)C(C)C)OC(=O)C(C)C)O[C@@H]2[C@@H]([C@H]([C@@H]([C@H](O2)COC(=O)C)OC(=O)C(C)C)OC(=O)C(C)C)OC(=O)C(C)C

> <PUBCHEM_OPENEYE_CAN_SMILES>
CC(C)C(=O)OCC1(C(C(C(O1)COC(=O)C)OC(=O)C(C)C)OC(=O)C(C)C)OC2C(C(C(C(O2)COC(=O)C)OC(=O)C(C)C)OC(=O)C(C)C)OC(=O)C(C)C

> <PUBCHEM_OPENEYE_ISO_SMILES>
CC(C)C(=O)OC[C@@]1([C@H]([C@@H]([C@H](O1)COC(=O)C)OC(=O)C(C)C)OC(=O)C(C)C)O[C@@H]2[C@@H]([C@H]([C@@H]([C@H](O2)COC(=O)C)OC(=O)C(C)C)OC(=O)C(C)C)OC(=O)C(C)C

> <PUBCHEM_CACTVS_TPSA>
238

> <PUBCHEM_MONOISOTOPIC_WEIGHT>
846.38852974

> <PUBCHEM_TOTAL_CHARGE>
0

> <PUBCHEM_HEAVY_ATOM_COUNT>
59

> <PUBCHEM_ATOM_DEF_STEREO_COUNT>
9

> <PUBCHEM_ATOM_UDEF_STEREO_COUNT>
0

> <PUBCHEM_BOND_DEF_STEREO_COUNT>
0

> <PUBCHEM_BOND_UDEF_STEREO_COUNT>
0

> <PUBCHEM_ISOTOPIC_ATOM_COUNT>
0

> <PUBCHEM_COMPONENT_COUNT>
1

> <PUBCHEM_CACTVS_TAUTO_COUNT>
-1

> <PUBCHEM_COORDINATE_TYPE>
1
5
255

> <PUBCHEM_BONDANNOTATIONS>
20  2  6
24  2  6
23  30  6
29  31  5
21  4  6
22  5  5
25  6  6
26  7  5
27  8  6

$$$$
