2832097
  -OEChem-04042505432D

 49 53  0     0  0  0  0  0  0999 V2000
    4.9889   -2.9365    0.0000 O   0  0  0  0  0  0  0  0  0  0  0  0
    7.9184    1.9690    0.0000 O   0  0  0  0  0  0  0  0  0  0  0  0
    2.8065    3.1585    0.0000 O   0  0  0  0  0  0  0  0  0  0  0  0
    5.2619   -1.1812    0.0000 N   0  0  0  0  0  0  0  0  0  0  0  0
    4.6783   -0.3765    0.0000 C   0  0  0  0  0  0  0  0  0  0  0  0
    3.7320   -0.6812    0.0000 C   0  0  0  0  0  0  0  0  0  0  0  0
    5.4883    0.2099    0.0000 C   0  0  0  0  0  0  0  0  0  0  0  0
    4.2103    0.5073    0.0000 C   0  0  0  0  0  0  0  0  0  0  0  0
    3.7320   -1.6812    0.0000 C   0  0  0  0  0  0  0  0  0  0  0  0
    4.6783   -1.9860    0.0000 C   0  0  0  0  0  0  0  0  0  0  0  0
    6.1279   -1.6812    0.0000 C   0  0  0  0  0  0  0  0  0  0  0  0
    2.8660   -0.1812    0.0000 C   0  0  0  0  0  0  0  0  0  0  0  0
    2.8660   -2.1812    0.0000 C   0  0  0  0  0  0  0  0  0  0  0  0
    6.4011   -0.1984    0.0000 C   0  0  0  0  0  0  0  0  0  0  0  0
    3.2110    0.5439    0.0000 C   0  0  0  0  0  0  0  0  0  0  0  0
    5.3855    1.2046    0.0000 C   0  0  0  0  0  0  0  0  0  0  0  0
    4.7417    1.3544    0.0000 C   0  0  0  0  0  0  0  0  0  0  0  0
    2.0000   -0.6812    0.0000 C   0  0  0  0  0  0  0  0  0  0  0  0
    2.0000   -1.6812    0.0000 C   0  0  0  0  0  0  0  0  0  0  0  0
    6.1279   -2.6812    0.0000 C   0  0  0  0  0  0  0  0  0  0  0  0
    6.9939   -1.1812    0.0000 C   0  0  0  0  0  0  0  0  0  0  0  0
    7.2112    0.3879    0.0000 C   0  0  0  0  0  0  0  0  0  0  0  0
    2.7431    1.4276    0.0000 C   0  0  0  0  0  0  0  0  0  0  0  0
    6.1955    1.7910    0.0000 C   0  0  0  0  0  0  0  0  0  0  0  0
    4.2738    2.2381    0.0000 C   0  0  0  0  0  0  0  0  0  0  0  0
    7.1084    1.3826    0.0000 C   0  0  0  0  0  0  0  0  0  0  0  0
    3.2744    2.2748    0.0000 C   0  0  0  0  0  0  0  0  0  0  0  0
    6.9939   -3.1812    0.0000 C   0  0  0  0  0  0  0  0  0  0  0  0
    7.8600   -1.6812    0.0000 C   0  0  0  0  0  0  0  0  0  0  0  0
    7.8600   -2.6812    0.0000 C   0  0  0  0  0  0  0  0  0  0  0  0
    2.8660    0.4388    0.0000 H   0  0  0  0  0  0  0  0  0  0  0  0
    2.8660   -2.8012    0.0000 H   0  0  0  0  0  0  0  0  0  0  0  0
    6.4649   -0.8152    0.0000 H   0  0  0  0  0  0  0  0  0  0  0  0
    2.8815    0.0187    0.0000 H   0  0  0  0  0  0  0  0  0  0  0  0
    4.8195    1.4577    0.0000 H   0  0  0  0  0  0  0  0  0  0  0  0
    5.3613    1.3317    0.0000 H   0  0  0  0  0  0  0  0  0  0  0  0
    1.4631   -0.3712    0.0000 H   0  0  0  0  0  0  0  0  0  0  0  0
    1.4631   -1.9912    0.0000 H   0  0  0  0  0  0  0  0  0  0  0  0
    5.5910   -2.9912    0.0000 H   0  0  0  0  0  0  0  0  0  0  0  0
    6.9939   -0.5612    0.0000 H   0  0  0  0  0  0  0  0  0  0  0  0
    7.7771    0.1348    0.0000 H   0  0  0  0  0  0  0  0  0  0  0  0
    2.1235    1.4504    0.0000 H   0  0  0  0  0  0  0  0  0  0  0  0
    6.1318    2.4077    0.0000 H   0  0  0  0  0  0  0  0  0  0  0  0
    4.6032    2.7634    0.0000 H   0  0  0  0  0  0  0  0  0  0  0  0
    6.9939   -3.8012    0.0000 H   0  0  0  0  0  0  0  0  0  0  0  0
    8.3969   -1.3712    0.0000 H   0  0  0  0  0  0  0  0  0  0  0  0
    8.3969   -2.9912    0.0000 H   0  0  0  0  0  0  0  0  0  0  0  0
    8.4844    1.7159    0.0000 H   0  0  0  0  0  0  0  0  0  0  0  0
    2.1869    3.1812    0.0000 H   0  0  0  0  0  0  0  0  0  0  0  0
  1 10  2  0  0  0  0
  2 26  1  0  0  0  0
  2 48  1  0  0  0  0
  3 27  1  0  0  0  0
  3 49  1  0  0  0  0
  4  5  1  0  0  0  0
  4 10  1  0  0  0  0
  4 11  1  0  0  0  0
  5  6  1  0  0  0  0
  5  7  1  0  0  0  0
  5  8  1  0  0  0  0
  6  9  1  0  0  0  0
  6 12  2  0  0  0  0
  7 14  2  0  0  0  0
  7 16  1  0  0  0  0
  8 15  2  0  0  0  0
  8 17  1  0  0  0  0
  9 10  1  0  0  0  0
  9 13  2  0  0  0  0
 11 20  2  0  0  0  0
 11 21  1  0  0  0  0
 12 18  1  0  0  0  0
 12 31  1  0  0  0  0
 13 19  1  0  0  0  0
 13 32  1  0  0  0  0
 14 22  1  0  0  0  0
 14 33  1  0  0  0  0
 15 23  1  0  0  0  0
 15 34  1  0  0  0  0
 16 24  2  0  0  0  0
 16 35  1  0  0  0  0
 17 25  2  0  0  0  0
 17 36  1  0  0  0  0
 18 19  2  0  0  0  0
 18 37  1  0  0  0  0
 19 38  1  0  0  0  0
 20 28  1  0  0  0  0
 20 39  1  0  0  0  0
 21 29  2  0  0  0  0
 21 40  1  0  0  0  0
 22 26  2  0  0  0  0
 22 41  1  0  0  0  0
 23 27  2  0  0  0  0
 23 42  1  0  0  0  0
 24 26  1  0  0  0  0
 24 43  1  0  0  0  0
 25 27  1  0  0  0  0
 25 44  1  0  0  0  0
 28 30  2  0  0  0  0
 28 45  1  0  0  0  0
 29 30  1  0  0  0  0
 29 46  1  0  0  0  0
 30 47  1  0  0  0  0
M  END
> <PUBCHEM_COMPOUND_CID>
2832097

> <PUBCHEM_COMPOUND_CANONICALIZED>
1

> <PUBCHEM_CACTVS_COMPLEXITY>
577

> <PUBCHEM_CACTVS_HBOND_ACCEPTOR>
3

> <PUBCHEM_CACTVS_HBOND_DONOR>
2

> <PUBCHEM_CACTVS_ROTATABLE_BOND>
3

> <PUBCHEM_CACTVS_SUBSKEYS>
AAADceB6MAAAAAAAAAAAAAAAAAAAAWAAAAAwYMGAAAAAAFgBVAAAHgAACAAADIyBmAAwxoMAAgCIAiVSUACCAAAlIgAIiAEGbMgIJjLClZOEcQhkxBHI2Yec2POOoAAAAAAQAABAAAAAACAAAAAAAAAAAA==

> <PUBCHEM_IUPAC_OPENEYE_NAME>
3,3-bis(4-hydroxyphenyl)-2-phenyl-isoindolin-1-one

> <PUBCHEM_IUPAC_CAS_NAME>
3,3-bis(4-hydroxyphenyl)-2-phenyl-1-isoindolone

> <PUBCHEM_IUPAC_NAME_MARKUP>
3,3-bis(4-hydroxyphenyl)-2-phenylisoindol-1-one

> <PUBCHEM_IUPAC_NAME>
3,3-bis(4-hydroxyphenyl)-2-phenylisoindol-1-one

> <PUBCHEM_IUPAC_SYSTEMATIC_NAME>
3,3-bis(4-hydroxyphenyl)-2-phenyl-isoindol-1-one

> <PUBCHEM_IUPAC_TRADITIONAL_NAME>
3,3-bis(4-hydroxyphenyl)-2-phenyl-isoindolin-1-one

> <PUBCHEM_IUPAC_INCHI>
InChI=1S/C26H19NO3/c28-21-14-10-18(11-15-21)26(19-12-16-22(29)17-13-19)24-9-5-4-8-23(24)25(30)27(26)20-6-2-1-3-7-20/h1-17,28-29H

> <PUBCHEM_IUPAC_INCHIKEY>
YBLBHSSRHHJKEK-UHFFFAOYSA-N

> <PUBCHEM_XLOGP3_AA>
5

> <PUBCHEM_EXACT_MASS>
393.13649347

> <PUBCHEM_MOLECULAR_FORMULA>
C26H19NO3

> <PUBCHEM_MOLECULAR_WEIGHT>
393.4

> <PUBCHEM_SMILES>
C1=CC=C(C=C1)N2C(=O)C3=CC=CC=C3C2(C4=CC=C(C=C4)O)C5=CC=C(C=C5)O

> <PUBCHEM_OPENEYE_CAN_SMILES>
C1=CC=C(C=C1)N2C(=O)C3=CC=CC=C3C2(C4=CC=C(C=C4)O)C5=CC=C(C=C5)O

> <PUBCHEM_OPENEYE_ISO_SMILES>
C1=CC=C(C=C1)N2C(=O)C3=CC=CC=C3C2(C4=CC=C(C=C4)O)C5=CC=C(C=C5)O

> <PUBCHEM_CACTVS_TPSA>
60.8

> <PUBCHEM_MONOISOTOPIC_WEIGHT>
393.13649347

> <PUBCHEM_TOTAL_CHARGE>
0

> <PUBCHEM_HEAVY_ATOM_COUNT>
30

> <PUBCHEM_ATOM_DEF_STEREO_COUNT>
0

> <PUBCHEM_ATOM_UDEF_STEREO_COUNT>
0

> <PUBCHEM_BOND_DEF_STEREO_COUNT>
0

> <PUBCHEM_BOND_UDEF_STEREO_COUNT>
0

> <PUBCHEM_ISOTOPIC_ATOM_COUNT>
0

> <PUBCHEM_COMPONENT_COUNT>
1

> <PUBCHEM_CACTVS_TAUTO_COUNT>
-1

> <PUBCHEM_COORDINATE_TYPE>
1
5
255

> <PUBCHEM_BONDANNOTATIONS>
11  20  8
11  21  8
12  18  8
13  19  8
14  22  8
15  23  8
16  24  8
17  25  8
18  19  8
20  28  8
21  29  8
22  26  8
23  27  8
24  26  8
25  27  8
28  30  8
29  30  8
6  12  8
6  9  8
7  14  8
7  16  8
8  15  8
8  17  8
9  13  8

$$$$
