292429
  -OEChem-04042505422D

 57 61  0     0  0  0  0  0  0999 V2000
    8.5817   -0.5408    0.0000 S   0  0  0  0  0  0  0  0  0  0  0  0
    6.4103   -2.1545    0.0000 O   0  0  0  0  0  0  0  0  0  0  0  0
   10.3409    0.7321    0.0000 O   0  0  0  0  0  0  0  0  0  0  0  0
    6.4103   -0.5451    0.0000 N   0  0  0  0  0  0  0  0  0  0  0  0
   11.2869   -0.5700    0.0000 N   0  0  0  0  0  0  0  0  0  0  0  0
    2.8660   -0.3498    0.0000 C   0  0  0  0  0  0  0  0  0  0  0  0
   14.2691    1.3553    0.0000 C   0  0  0  0  0  0  0  0  0  0  0  0
    3.7320   -0.8498    0.0000 C   0  0  0  0  0  0  0  0  0  0  0  0
   13.2746    1.2508    0.0000 C   0  0  0  0  0  0  0  0  0  0  0  0
    2.0000    0.1502    0.0000 C   0  0  0  0  0  0  0  0  0  0  0  0
    2.3660   -1.2158    0.0000 C   0  0  0  0  0  0  0  0  0  0  0  0
    3.3660    0.5162    0.0000 C   0  0  0  0  0  0  0  0  0  0  0  0
   15.2636    1.4598    0.0000 C   0  0  0  0  0  0  0  0  0  0  0  0
   14.1646    2.3498    0.0000 C   0  0  0  0  0  0  0  0  0  0  0  0
   14.3736    0.3608    0.0000 C   0  0  0  0  0  0  0  0  0  0  0  0
    4.5981   -0.3498    0.0000 C   0  0  0  0  0  0  0  0  0  0  0  0
   12.8679    0.3372    0.0000 C   0  0  0  0  0  0  0  0  0  0  0  0
    3.7320   -1.8498    0.0000 C   0  0  0  0  0  0  0  0  0  0  0  0
   12.6868    2.0598    0.0000 C   0  0  0  0  0  0  0  0  0  0  0  0
    5.4641   -0.8498    0.0000 C   0  0  0  0  0  0  0  0  0  0  0  0
   11.8733    0.2327    0.0000 C   0  0  0  0  0  0  0  0  0  0  0  0
    5.4641   -1.8498    0.0000 C   0  0  0  0  0  0  0  0  0  0  0  0
   11.2856    1.0417    0.0000 C   0  0  0  0  0  0  0  0  0  0  0  0
    4.5981   -2.3498    0.0000 C   0  0  0  0  0  0  0  0  0  0  0  0
   11.6923    1.9552    0.0000 C   0  0  0  0  0  0  0  0  0  0  0  0
    6.9939   -1.3498    0.0000 C   0  0  0  0  0  0  0  0  0  0  0  0
   10.3418   -0.2620    0.0000 C   0  0  0  0  0  0  0  0  0  0  0  0
    7.9939   -1.3498    0.0000 C   0  0  0  0  0  0  0  0  0  0  0  0
    9.5328   -0.8498    0.0000 C   0  0  0  0  0  0  0  0  0  0  0  0
    8.5817   -2.1588    0.0000 C   0  0  0  0  0  0  0  0  0  0  0  0
    9.5328   -1.8498    0.0000 C   0  0  0  0  0  0  0  0  0  0  0  0
    2.3100    0.6871    0.0000 H   0  0  0  0  0  0  0  0  0  0  0  0
    1.4631    0.4602    0.0000 H   0  0  0  0  0  0  0  0  0  0  0  0
    1.6900   -0.3867    0.0000 H   0  0  0  0  0  0  0  0  0  0  0  0
    1.8291   -0.9058    0.0000 H   0  0  0  0  0  0  0  0  0  0  0  0
    2.0560   -1.7528    0.0000 H   0  0  0  0  0  0  0  0  0  0  0  0
    2.9030   -1.5258    0.0000 H   0  0  0  0  0  0  0  0  0  0  0  0
    3.9030    0.2062    0.0000 H   0  0  0  0  0  0  0  0  0  0  0  0
    3.6760    1.0532    0.0000 H   0  0  0  0  0  0  0  0  0  0  0  0
    2.8291    0.8262    0.0000 H   0  0  0  0  0  0  0  0  0  0  0  0
   15.3284    0.8432    0.0000 H   0  0  0  0  0  0  0  0  0  0  0  0
   15.8802    1.5246    0.0000 H   0  0  0  0  0  0  0  0  0  0  0  0
   15.1988    2.0764    0.0000 H   0  0  0  0  0  0  0  0  0  0  0  0
   14.7812    2.4146    0.0000 H   0  0  0  0  0  0  0  0  0  0  0  0
   14.0998    2.9664    0.0000 H   0  0  0  0  0  0  0  0  0  0  0  0
   13.5480    2.2850    0.0000 H   0  0  0  0  0  0  0  0  0  0  0  0
   13.7570    0.2960    0.0000 H   0  0  0  0  0  0  0  0  0  0  0  0
   14.4385   -0.2558    0.0000 H   0  0  0  0  0  0  0  0  0  0  0  0
   14.9903    0.4256    0.0000 H   0  0  0  0  0  0  0  0  0  0  0  0
    4.5981    0.2702    0.0000 H   0  0  0  0  0  0  0  0  0  0  0  0
   13.2323   -0.1644    0.0000 H   0  0  0  0  0  0  0  0  0  0  0  0
    3.1951   -2.1598    0.0000 H   0  0  0  0  0  0  0  0  0  0  0  0
   12.9390    2.6262    0.0000 H   0  0  0  0  0  0  0  0  0  0  0  0
    4.5981   -2.9698    0.0000 H   0  0  0  0  0  0  0  0  0  0  0  0
   11.3279    2.4568    0.0000 H   0  0  0  0  0  0  0  0  0  0  0  0
    8.3901   -2.7485    0.0000 H   0  0  0  0  0  0  0  0  0  0  0  0
   10.0344   -2.2142    0.0000 H   0  0  0  0  0  0  0  0  0  0  0  0
  1 28  1  0  0  0  0
  1 29  1  0  0  0  0
  2 22  1  0  0  0  0
  2 26  1  0  0  0  0
  3 23  1  0  0  0  0
  3 27  1  0  0  0  0
  4 20  1  0  0  0  0
  4 26  2  0  0  0  0
  5 21  1  0  0  0  0
  5 27  2  0  0  0  0
  6  8  1  0  0  0  0
  6 10  1  0  0  0  0
  6 11  1  0  0  0  0
  6 12  1  0  0  0  0
  7  9  1  0  0  0  0
  7 13  1  0  0  0  0
  7 14  1  0  0  0  0
  7 15  1  0  0  0  0
  8 16  2  0  0  0  0
  8 18  1  0  0  0  0
  9 17  2  0  0  0  0
  9 19  1  0  0  0  0
 10 32  1  0  0  0  0
 10 33  1  0  0  0  0
 10 34  1  0  0  0  0
 11 35  1  0  0  0  0
 11 36  1  0  0  0  0
 11 37  1  0  0  0  0
 12 38  1  0  0  0  0
 12 39  1  0  0  0  0
 12 40  1  0  0  0  0
 13 41  1  0  0  0  0
 13 42  1  0  0  0  0
 13 43  1  0  0  0  0
 14 44  1  0  0  0  0
 14 45  1  0  0  0  0
 14 46  1  0  0  0  0
 15 47  1  0  0  0  0
 15 48  1  0  0  0  0
 15 49  1  0  0  0  0
 16 20  1  0  0  0  0
 16 50  1  0  0  0  0
 17 21  1  0  0  0  0
 17 51  1  0  0  0  0
 18 24  2  0  0  0  0
 18 52  1  0  0  0  0
 19 25  2  0  0  0  0
 19 53  1  0  0  0  0
 20 22  2  0  0  0  0
 21 23  2  0  0  0  0
 22 24  1  0  0  0  0
 23 25  1  0  0  0  0
 24 54  1  0  0  0  0
 25 55  1  0  0  0  0
 26 28  1  0  0  0  0
 27 29  1  0  0  0  0
 28 30  2  0  0  0  0
 29 31  2  0  0  0  0
 30 31  1  0  0  0  0
 30 56  1  0  0  0  0
 31 57  1  0  0  0  0
M  END
> <PUBCHEM_COMPOUND_CID>
292429

> <PUBCHEM_COMPOUND_CANONICALIZED>
1

> <PUBCHEM_CACTVS_COMPLEXITY>
590

> <PUBCHEM_CACTVS_HBOND_ACCEPTOR>
5

> <PUBCHEM_CACTVS_HBOND_DONOR>
0

> <PUBCHEM_CACTVS_ROTATABLE_BOND>
4

> <PUBCHEM_CACTVS_SUBSKEYS>
AAADceB7MABAAAAAAAAAAAAAAAAAAWLEgAAwYAAAAAAAAFgB/gAAHgQAAAAADgyB3gAyx7IIFEisA6VyVASDiKAvajBImDm3bNgOJrLktbuPOSjkxBH46YeYyNAPoAAAQAAAEABAAACAAAAgAAAAAAAAAA==

> <PUBCHEM_IUPAC_OPENEYE_NAME>
5-tert-butyl-2-[5-(5-tert-butyl-1,3-benzoxazol-2-yl)-2-thienyl]-1,3-benzoxazole

> <PUBCHEM_IUPAC_CAS_NAME>
5-tert-butyl-2-[5-(5-tert-butyl-1,3-benzoxazol-2-yl)-2-thiophenyl]-1,3-benzoxazole

> <PUBCHEM_IUPAC_NAME_MARKUP>
5-<I>tert</I>-butyl-2-[5-(5-<I>tert</I>-butyl-1,3-benzoxazol-2-yl)thiophen-2-yl]-1,3-benzoxazole

> <PUBCHEM_IUPAC_NAME>
5-tert-butyl-2-[5-(5-tert-butyl-1,3-benzoxazol-2-yl)thiophen-2-yl]-1,3-benzoxazole

> <PUBCHEM_IUPAC_SYSTEMATIC_NAME>
5-tert-butyl-2-[5-(5-tert-butyl-1,3-benzoxazol-2-yl)thiophen-2-yl]-1,3-benzoxazole

> <PUBCHEM_IUPAC_TRADITIONAL_NAME>
5-tert-butyl-2-[5-(5-tert-butyl-1,3-benzoxazol-2-yl)-2-thienyl]-1,3-benzoxazole

> <PUBCHEM_IUPAC_INCHI>
InChI=1S/C26H26N2O2S/c1-25(2,3)15-7-9-19-17(13-15)27-23(29-19)21-11-12-22(31-21)24-28-18-14-16(26(4,5)6)8-10-20(18)30-24/h7-14H,1-6H3

> <PUBCHEM_IUPAC_INCHIKEY>
AIXZBGVLNVRQSS-UHFFFAOYSA-N

> <PUBCHEM_XLOGP3_AA>
8

> <PUBCHEM_EXACT_MASS>
430.17149925

> <PUBCHEM_MOLECULAR_FORMULA>
C26H26N2O2S

> <PUBCHEM_MOLECULAR_WEIGHT>
430.6

> <PUBCHEM_SMILES>
CC(C)(C)C1=CC2=C(C=C1)OC(=N2)C3=CC=C(S3)C4=NC5=C(O4)C=CC(=C5)C(C)(C)C

> <PUBCHEM_OPENEYE_CAN_SMILES>
CC(C)(C)C1=CC2=C(C=C1)OC(=N2)C3=CC=C(S3)C4=NC5=C(O4)C=CC(=C5)C(C)(C)C

> <PUBCHEM_OPENEYE_ISO_SMILES>
CC(C)(C)C1=CC2=C(C=C1)OC(=N2)C3=CC=C(S3)C4=NC5=C(O4)C=CC(=C5)C(C)(C)C

> <PUBCHEM_CACTVS_TPSA>
80.3

> <PUBCHEM_MONOISOTOPIC_WEIGHT>
430.17149925

> <PUBCHEM_TOTAL_CHARGE>
0

> <PUBCHEM_HEAVY_ATOM_COUNT>
31

> <PUBCHEM_ATOM_DEF_STEREO_COUNT>
0

> <PUBCHEM_ATOM_UDEF_STEREO_COUNT>
0

> <PUBCHEM_BOND_DEF_STEREO_COUNT>
0

> <PUBCHEM_BOND_UDEF_STEREO_COUNT>
0

> <PUBCHEM_ISOTOPIC_ATOM_COUNT>
0

> <PUBCHEM_COMPONENT_COUNT>
1

> <PUBCHEM_CACTVS_TAUTO_COUNT>
-1

> <PUBCHEM_COORDINATE_TYPE>
1
5
255

> <PUBCHEM_BONDANNOTATIONS>
1  28  8
1  29  8
16  20  8
17  21  8
18  24  8
19  25  8
2  22  8
2  26  8
20  22  8
21  23  8
22  24  8
23  25  8
28  30  8
29  31  8
3  23  8
3  27  8
30  31  8
4  20  8
4  26  8
5  21  8
5  27  8
8  16  8
8  18  8
9  17  8
9  19  8

$$$$
