3017990
  -OEChem-04042506022D

 72 72  0     1  0  0  0  0  0999 V2000
   11.5263   -1.0000    0.0000 O   0  0  0  0  0  0  0  0  0  0  0  0
    8.0622   -3.0000    0.0000 O   0  0  0  0  0  0  0  0  0  0  0  0
    9.7942   -1.0000    0.0000 O   0  0  0  0  0  0  0  0  0  0  0  0
    8.9282   -1.5000    0.0000 O   0  0  0  0  0  0  0  0  0  0  0  0
   12.3923    0.5000    0.0000 C   0  0  3  0  0  0  0  0  0  0  0  0
    6.3301   -3.0000    0.0000 C   0  0  3  0  0  0  0  0  0  0  0  0
   12.3923    1.5000    0.0000 C   0  0  0  0  0  0  0  0  0  0  0  0
    5.4641   -2.5000    0.0000 C   0  0  0  0  0  0  0  0  0  0  0  0
   13.2583    2.0000    0.0000 C   0  0  0  0  0  0  0  0  0  0  0  0
    4.5981   -3.0000    0.0000 C   0  0  0  0  0  0  0  0  0  0  0  0
   13.2583    0.0000    0.0000 C   0  0  0  0  0  0  0  0  0  0  0  0
    6.3301   -4.0000    0.0000 C   0  0  0  0  0  0  0  0  0  0  0  0
   11.5263    0.0000    0.0000 C   0  0  0  0  0  0  0  0  0  0  0  0
    7.1962   -2.5000    0.0000 C   0  0  0  0  0  0  0  0  0  0  0  0
   13.2583    3.0000    0.0000 C   0  0  0  0  0  0  0  0  0  0  0  0
    3.7320   -2.5000    0.0000 C   0  0  0  0  0  0  0  0  0  0  0  0
   14.1244    3.5000    0.0000 C   0  0  0  0  0  0  0  0  0  0  0  0
    2.8660   -3.0000    0.0000 C   0  0  0  0  0  0  0  0  0  0  0  0
   14.1244    0.5000    0.0000 C   0  0  0  0  0  0  0  0  0  0  0  0
    5.4641   -4.5000    0.0000 C   0  0  0  0  0  0  0  0  0  0  0  0
   14.1244    4.5000    0.0000 C   0  0  0  0  0  0  0  0  0  0  0  0
    2.0000   -2.5000    0.0000 C   0  0  0  0  0  0  0  0  0  0  0  0
   10.6603   -1.5000    0.0000 C   0  0  0  0  0  0  0  0  0  0  0  0
    8.9282   -2.5000    0.0000 C   0  0  0  0  0  0  0  0  0  0  0  0
   10.6603   -2.5000    0.0000 C   0  0  0  0  0  0  0  0  0  0  0  0
    9.7942   -3.0000    0.0000 C   0  0  0  0  0  0  0  0  0  0  0  0
   11.5263   -3.0000    0.0000 C   0  0  0  0  0  0  0  0  0  0  0  0
    9.7942   -4.0000    0.0000 C   0  0  0  0  0  0  0  0  0  0  0  0
   11.5263   -4.0000    0.0000 C   0  0  0  0  0  0  0  0  0  0  0  0
   10.6603   -4.5000    0.0000 C   0  0  0  0  0  0  0  0  0  0  0  0
   11.8554    0.8100    0.0000 H   0  0  0  0  0  0  0  0  0  0  0  0
    6.8671   -3.3100    0.0000 H   0  0  0  0  0  0  0  0  0  0  0  0
   12.1803    2.0826    0.0000 H   0  0  0  0  0  0  0  0  0  0  0  0
   11.7817    1.3923    0.0000 H   0  0  0  0  0  0  0  0  0  0  0  0
    5.8626   -2.0250    0.0000 H   0  0  0  0  0  0  0  0  0  0  0  0
    5.0656   -2.0250    0.0000 H   0  0  0  0  0  0  0  0  0  0  0  0
   13.4704    1.4174    0.0000 H   0  0  0  0  0  0  0  0  0  0  0  0
   13.8689    2.1077    0.0000 H   0  0  0  0  0  0  0  0  0  0  0  0
    4.1996   -3.4750    0.0000 H   0  0  0  0  0  0  0  0  0  0  0  0
    4.9966   -3.4750    0.0000 H   0  0  0  0  0  0  0  0  0  0  0  0
   12.8598   -0.4749    0.0000 H   0  0  0  0  0  0  0  0  0  0  0  0
   13.6569   -0.4749    0.0000 H   0  0  0  0  0  0  0  0  0  0  0  0
    6.5422   -4.5826    0.0000 H   0  0  0  0  0  0  0  0  0  0  0  0
    6.9407   -3.8923    0.0000 H   0  0  0  0  0  0  0  0  0  0  0  0
   11.3142    0.5826    0.0000 H   0  0  0  0  0  0  0  0  0  0  0  0
   10.9157   -0.1077    0.0000 H   0  0  0  0  0  0  0  0  0  0  0  0
    7.5947   -2.0250    0.0000 H   0  0  0  0  0  0  0  0  0  0  0  0
    6.7976   -2.0250    0.0000 H   0  0  0  0  0  0  0  0  0  0  0  0
   13.0463    3.5826    0.0000 H   0  0  0  0  0  0  0  0  0  0  0  0
   12.6477    2.8923    0.0000 H   0  0  0  0  0  0  0  0  0  0  0  0
    4.1306   -2.0250    0.0000 H   0  0  0  0  0  0  0  0  0  0  0  0
    3.3335   -2.0250    0.0000 H   0  0  0  0  0  0  0  0  0  0  0  0
   14.3364    2.9174    0.0000 H   0  0  0  0  0  0  0  0  0  0  0  0
   14.7349    3.6077    0.0000 H   0  0  0  0  0  0  0  0  0  0  0  0
    2.4675   -3.4750    0.0000 H   0  0  0  0  0  0  0  0  0  0  0  0
    3.2646   -3.4750    0.0000 H   0  0  0  0  0  0  0  0  0  0  0  0
   14.4344   -0.0369    0.0000 H   0  0  0  0  0  0  0  0  0  0  0  0
   14.6613    0.8100    0.0000 H   0  0  0  0  0  0  0  0  0  0  0  0
   13.8144    1.0369    0.0000 H   0  0  0  0  0  0  0  0  0  0  0  0
    5.1541   -3.9631    0.0000 H   0  0  0  0  0  0  0  0  0  0  0  0
    4.9272   -4.8100    0.0000 H   0  0  0  0  0  0  0  0  0  0  0  0
    5.7741   -5.0369    0.0000 H   0  0  0  0  0  0  0  0  0  0  0  0
   14.7444    4.5000    0.0000 H   0  0  0  0  0  0  0  0  0  0  0  0
   14.1244    5.1200    0.0000 H   0  0  0  0  0  0  0  0  0  0  0  0
   13.5044    4.5000    0.0000 H   0  0  0  0  0  0  0  0  0  0  0  0
    2.3100   -1.9631    0.0000 H   0  0  0  0  0  0  0  0  0  0  0  0
    1.4631   -2.1900    0.0000 H   0  0  0  0  0  0  0  0  0  0  0  0
    1.6900   -3.0369    0.0000 H   0  0  0  0  0  0  0  0  0  0  0  0
   12.0632   -2.6900    0.0000 H   0  0  0  0  0  0  0  0  0  0  0  0
    9.2573   -4.3100    0.0000 H   0  0  0  0  0  0  0  0  0  0  0  0
   12.0632   -4.3100    0.0000 H   0  0  0  0  0  0  0  0  0  0  0  0
   10.6603   -5.1200    0.0000 H   0  0  0  0  0  0  0  0  0  0  0  0
  1 13  1  0  0  0  0
  1 23  1  0  0  0  0
  2 14  1  0  0  0  0
  2 24  1  0  0  0  0
  3 23  2  0  0  0  0
  4 24  2  0  0  0  0
  5  7  1  0  0  0  0
  5 11  1  0  0  0  0
  5 13  1  0  0  0  0
  5 31  1  0  0  0  0
  6  8  1  0  0  0  0
  6 12  1  0  0  0  0
  6 14  1  0  0  0  0
  6 32  1  0  0  0  0
  7  9  1  0  0  0  0
  7 33  1  0  0  0  0
  7 34  1  0  0  0  0
  8 10  1  0  0  0  0
  8 35  1  0  0  0  0
  8 36  1  0  0  0  0
  9 15  1  0  0  0  0
  9 37  1  0  0  0  0
  9 38  1  0  0  0  0
 10 16  1  0  0  0  0
 10 39  1  0  0  0  0
 10 40  1  0  0  0  0
 11 19  1  0  0  0  0
 11 41  1  0  0  0  0
 11 42  1  0  0  0  0
 12 20  1  0  0  0  0
 12 43  1  0  0  0  0
 12 44  1  0  0  0  0
 13 45  1  0  0  0  0
 13 46  1  0  0  0  0
 14 47  1  0  0  0  0
 14 48  1  0  0  0  0
 15 17  1  0  0  0  0
 15 49  1  0  0  0  0
 15 50  1  0  0  0  0
 16 18  1  0  0  0  0
 16 51  1  0  0  0  0
 16 52  1  0  0  0  0
 17 21  1  0  0  0  0
 17 53  1  0  0  0  0
 17 54  1  0  0  0  0
 18 22  1  0  0  0  0
 18 55  1  0  0  0  0
 18 56  1  0  0  0  0
 19 57  1  0  0  0  0
 19 58  1  0  0  0  0
 19 59  1  0  0  0  0
 20 60  1  0  0  0  0
 20 61  1  0  0  0  0
 20 62  1  0  0  0  0
 21 63  1  0  0  0  0
 21 64  1  0  0  0  0
 21 65  1  0  0  0  0
 22 66  1  0  0  0  0
 22 67  1  0  0  0  0
 22 68  1  0  0  0  0
 23 25  1  0  0  0  0
 24 26  1  0  0  0  0
 25 26  1  0  0  0  0
 25 27  2  0  0  0  0
 26 28  2  0  0  0  0
 27 29  1  0  0  0  0
 27 69  1  0  0  0  0
 28 30  1  0  0  0  0
 28 70  1  0  0  0  0
 29 30  2  0  0  0  0
 29 71  1  0  0  0  0
 30 72  1  0  0  0  0
M  END
> <PUBCHEM_COMPOUND_CID>
3017990

> <PUBCHEM_COMPOUND_CANONICALIZED>
1

> <PUBCHEM_CACTVS_COMPLEXITY>
420

> <PUBCHEM_CACTVS_HBOND_ACCEPTOR>
4

> <PUBCHEM_CACTVS_HBOND_DONOR>
0

> <PUBCHEM_CACTVS_ROTATABLE_BOND>
18

> <PUBCHEM_CACTVS_SUBSKEYS>
AAADcfB4OAAAAAAAAAAAAAAAAAAAAAAAAAAwAAAAAAAAAAABAAAAGgAAAAAADQCgmAIyCIAABACIAiDSCAACAAAkAAAIiAEACMgIJjKANRiCMQAkwAEIqYfLyOCOgAAAAAAQAAAAAAAAACAAAAAAAAAAAA==

> <PUBCHEM_IUPAC_OPENEYE_NAME>
bis(2-ethylheptyl) benzene-1,2-dicarboxylate

> <PUBCHEM_IUPAC_CAS_NAME>
benzene-1,2-dicarboxylic acid bis(2-ethylheptyl) ester

> <PUBCHEM_IUPAC_NAME_MARKUP>
bis(2-ethylheptyl) benzene-1,2-dicarboxylate

> <PUBCHEM_IUPAC_NAME>
bis(2-ethylheptyl) benzene-1,2-dicarboxylate

> <PUBCHEM_IUPAC_SYSTEMATIC_NAME>
bis(2-ethylheptyl) benzene-1,2-dicarboxylate

> <PUBCHEM_IUPAC_TRADITIONAL_NAME>
benzene-1,2-dicarboxylic acid bis(2-ethylheptyl) ester

> <PUBCHEM_IUPAC_INCHI>
InChI=1S/C26H42O4/c1-5-9-11-15-21(7-3)19-29-25(27)23-17-13-14-18-24(23)26(28)30-20-22(8-4)16-12-10-6-2/h13-14,17-18,21-22H,5-12,15-16,19-20H2,1-4H3

> <PUBCHEM_IUPAC_INCHIKEY>
SGKJLUZIKNCQOM-UHFFFAOYSA-N

> <PUBCHEM_XLOGP3>
8.5

> <PUBCHEM_EXACT_MASS>
418.30830982

> <PUBCHEM_MOLECULAR_FORMULA>
C26H42O4

> <PUBCHEM_MOLECULAR_WEIGHT>
418.6

> <PUBCHEM_SMILES>
CCCCCC(CC)COC(=O)C1=CC=CC=C1C(=O)OCC(CC)CCCCC

> <PUBCHEM_OPENEYE_CAN_SMILES>
CCCCCC(CC)COC(=O)C1=CC=CC=C1C(=O)OCC(CC)CCCCC

> <PUBCHEM_OPENEYE_ISO_SMILES>
CCCCCC(CC)COC(=O)C1=CC=CC=C1C(=O)OCC(CC)CCCCC

> <PUBCHEM_CACTVS_TPSA>
52.6

> <PUBCHEM_MONOISOTOPIC_WEIGHT>
418.30830982

> <PUBCHEM_TOTAL_CHARGE>
0

> <PUBCHEM_HEAVY_ATOM_COUNT>
30

> <PUBCHEM_ATOM_DEF_STEREO_COUNT>
0

> <PUBCHEM_ATOM_UDEF_STEREO_COUNT>
2

> <PUBCHEM_BOND_DEF_STEREO_COUNT>
0

> <PUBCHEM_BOND_UDEF_STEREO_COUNT>
0

> <PUBCHEM_ISOTOPIC_ATOM_COUNT>
0

> <PUBCHEM_COMPONENT_COUNT>
1

> <PUBCHEM_CACTVS_TAUTO_COUNT>
-1

> <PUBCHEM_COORDINATE_TYPE>
1
5
255

> <PUBCHEM_BONDANNOTATIONS>
25  26  8
25  27  8
26  28  8
27  29  8
28  30  8
29  30  8
5  11  3
6  12  3

$$$$
