3020990
  -OEChem-04042506032D

 84 84  0     1  0  0  0  0  0999 V2000
   13.2583   -1.7500    0.0000 O   0  0  0  0  0  0  0  0  0  0  0  0
    9.7942   -3.7500    0.0000 O   0  0  0  0  0  0  0  0  0  0  0  0
   11.5263   -1.7500    0.0000 O   0  0  0  0  0  0  0  0  0  0  0  0
   10.6603   -2.2500    0.0000 O   0  0  0  0  0  0  0  0  0  0  0  0
   14.1244   -0.2500    0.0000 C   0  0  3  0  0  0  0  0  0  0  0  0
    8.0622   -3.7500    0.0000 C   0  0  3  0  0  0  0  0  0  0  0  0
   14.1244    0.7500    0.0000 C   0  0  0  0  0  0  0  0  0  0  0  0
    7.1962   -3.2500    0.0000 C   0  0  0  0  0  0  0  0  0  0  0  0
   14.9904    1.2500    0.0000 C   0  0  0  0  0  0  0  0  0  0  0  0
    6.3301   -3.7500    0.0000 C   0  0  0  0  0  0  0  0  0  0  0  0
   14.9904    2.2500    0.0000 C   0  0  0  0  0  0  0  0  0  0  0  0
    5.4641   -3.2500    0.0000 C   0  0  0  0  0  0  0  0  0  0  0  0
   14.9904   -0.7500    0.0000 C   0  0  0  0  0  0  0  0  0  0  0  0
    8.0622   -4.7500    0.0000 C   0  0  0  0  0  0  0  0  0  0  0  0
   13.2583   -0.7500    0.0000 C   0  0  0  0  0  0  0  0  0  0  0  0
    8.9282   -3.2500    0.0000 C   0  0  0  0  0  0  0  0  0  0  0  0
   15.8564    2.7500    0.0000 C   0  0  0  0  0  0  0  0  0  0  0  0
    4.5981   -3.7500    0.0000 C   0  0  0  0  0  0  0  0  0  0  0  0
   15.8564    3.7500    0.0000 C   0  0  0  0  0  0  0  0  0  0  0  0
    3.7320   -3.2500    0.0000 C   0  0  0  0  0  0  0  0  0  0  0  0
   15.8564   -0.2500    0.0000 C   0  0  0  0  0  0  0  0  0  0  0  0
    7.1962   -5.2500    0.0000 C   0  0  0  0  0  0  0  0  0  0  0  0
   16.7224    4.2500    0.0000 C   0  0  0  0  0  0  0  0  0  0  0  0
    2.8660   -3.7500    0.0000 C   0  0  0  0  0  0  0  0  0  0  0  0
   16.7224    5.2500    0.0000 C   0  0  0  0  0  0  0  0  0  0  0  0
    2.0000   -3.2500    0.0000 C   0  0  0  0  0  0  0  0  0  0  0  0
   12.3923   -2.2500    0.0000 C   0  0  0  0  0  0  0  0  0  0  0  0
   10.6603   -3.2500    0.0000 C   0  0  0  0  0  0  0  0  0  0  0  0
   12.3923   -3.2500    0.0000 C   0  0  0  0  0  0  0  0  0  0  0  0
   11.5263   -3.7500    0.0000 C   0  0  0  0  0  0  0  0  0  0  0  0
   13.2583   -3.7500    0.0000 C   0  0  0  0  0  0  0  0  0  0  0  0
   11.5263   -4.7500    0.0000 C   0  0  0  0  0  0  0  0  0  0  0  0
   13.2583   -4.7500    0.0000 C   0  0  0  0  0  0  0  0  0  0  0  0
   12.3923   -5.2500    0.0000 C   0  0  0  0  0  0  0  0  0  0  0  0
   13.5874    0.0600    0.0000 H   0  0  0  0  0  0  0  0  0  0  0  0
    8.0622   -3.1300    0.0000 H   0  0  0  0  0  0  0  0  0  0  0  0
   13.9123    1.3326    0.0000 H   0  0  0  0  0  0  0  0  0  0  0  0
   13.5138    0.6423    0.0000 H   0  0  0  0  0  0  0  0  0  0  0  0
    7.5947   -2.7750    0.0000 H   0  0  0  0  0  0  0  0  0  0  0  0
    6.7976   -2.7750    0.0000 H   0  0  0  0  0  0  0  0  0  0  0  0
   15.2024    0.6674    0.0000 H   0  0  0  0  0  0  0  0  0  0  0  0
   15.6010    1.3577    0.0000 H   0  0  0  0  0  0  0  0  0  0  0  0
    5.9316   -4.2250    0.0000 H   0  0  0  0  0  0  0  0  0  0  0  0
    6.7287   -4.2250    0.0000 H   0  0  0  0  0  0  0  0  0  0  0  0
   14.7783    2.8326    0.0000 H   0  0  0  0  0  0  0  0  0  0  0  0
   14.3798    2.1423    0.0000 H   0  0  0  0  0  0  0  0  0  0  0  0
    5.8626   -2.7750    0.0000 H   0  0  0  0  0  0  0  0  0  0  0  0
    5.0656   -2.7750    0.0000 H   0  0  0  0  0  0  0  0  0  0  0  0
   14.5919   -1.2250    0.0000 H   0  0  0  0  0  0  0  0  0  0  0  0
   15.3889   -1.2250    0.0000 H   0  0  0  0  0  0  0  0  0  0  0  0
    8.2742   -5.3326    0.0000 H   0  0  0  0  0  0  0  0  0  0  0  0
    8.6728   -4.6423    0.0000 H   0  0  0  0  0  0  0  0  0  0  0  0
   13.0463   -0.1674    0.0000 H   0  0  0  0  0  0  0  0  0  0  0  0
   12.6477   -0.8577    0.0000 H   0  0  0  0  0  0  0  0  0  0  0  0
    9.3267   -2.7750    0.0000 H   0  0  0  0  0  0  0  0  0  0  0  0
    8.5297   -2.7750    0.0000 H   0  0  0  0  0  0  0  0  0  0  0  0
   16.0685    2.1674    0.0000 H   0  0  0  0  0  0  0  0  0  0  0  0
   16.4670    2.8577    0.0000 H   0  0  0  0  0  0  0  0  0  0  0  0
    4.1996   -4.2250    0.0000 H   0  0  0  0  0  0  0  0  0  0  0  0
    4.9966   -4.2250    0.0000 H   0  0  0  0  0  0  0  0  0  0  0  0
   15.6444    4.3326    0.0000 H   0  0  0  0  0  0  0  0  0  0  0  0
   15.2458    3.6423    0.0000 H   0  0  0  0  0  0  0  0  0  0  0  0
    4.1306   -2.7750    0.0000 H   0  0  0  0  0  0  0  0  0  0  0  0
    3.3335   -2.7750    0.0000 H   0  0  0  0  0  0  0  0  0  0  0  0
   16.1664   -0.7869    0.0000 H   0  0  0  0  0  0  0  0  0  0  0  0
   16.3933    0.0600    0.0000 H   0  0  0  0  0  0  0  0  0  0  0  0
   15.5464    0.2869    0.0000 H   0  0  0  0  0  0  0  0  0  0  0  0
    6.8862   -4.7131    0.0000 H   0  0  0  0  0  0  0  0  0  0  0  0
    6.6592   -5.5600    0.0000 H   0  0  0  0  0  0  0  0  0  0  0  0
    7.5062   -5.7869    0.0000 H   0  0  0  0  0  0  0  0  0  0  0  0
   16.9345    3.6674    0.0000 H   0  0  0  0  0  0  0  0  0  0  0  0
   17.3330    4.3577    0.0000 H   0  0  0  0  0  0  0  0  0  0  0  0
    2.4675   -4.2250    0.0000 H   0  0  0  0  0  0  0  0  0  0  0  0
    3.2646   -4.2250    0.0000 H   0  0  0  0  0  0  0  0  0  0  0  0
   17.3424    5.2500    0.0000 H   0  0  0  0  0  0  0  0  0  0  0  0
   16.7224    5.8700    0.0000 H   0  0  0  0  0  0  0  0  0  0  0  0
   16.1024    5.2500    0.0000 H   0  0  0  0  0  0  0  0  0  0  0  0
    2.3100   -2.7131    0.0000 H   0  0  0  0  0  0  0  0  0  0  0  0
    1.4631   -2.9400    0.0000 H   0  0  0  0  0  0  0  0  0  0  0  0
    1.6900   -3.7869    0.0000 H   0  0  0  0  0  0  0  0  0  0  0  0
   13.7953   -3.4400    0.0000 H   0  0  0  0  0  0  0  0  0  0  0  0
   10.9893   -5.0600    0.0000 H   0  0  0  0  0  0  0  0  0  0  0  0
   13.7953   -5.0600    0.0000 H   0  0  0  0  0  0  0  0  0  0  0  0
   12.3923   -5.8700    0.0000 H   0  0  0  0  0  0  0  0  0  0  0  0
  1 15  1  0  0  0  0
  1 27  1  0  0  0  0
  2 16  1  0  0  0  0
  2 28  1  0  0  0  0
  3 27  2  0  0  0  0
  4 28  2  0  0  0  0
  5  7  1  0  0  0  0
  5 13  1  0  0  0  0
  5 15  1  0  0  0  0
  5 35  1  0  0  0  0
  6  8  1  0  0  0  0
  6 14  1  0  0  0  0
  6 16  1  0  0  0  0
  6 36  1  0  0  0  0
  7  9  1  0  0  0  0
  7 37  1  0  0  0  0
  7 38  1  0  0  0  0
  8 10  1  0  0  0  0
  8 39  1  0  0  0  0
  8 40  1  0  0  0  0
  9 11  1  0  0  0  0
  9 41  1  0  0  0  0
  9 42  1  0  0  0  0
 10 12  1  0  0  0  0
 10 43  1  0  0  0  0
 10 44  1  0  0  0  0
 11 17  1  0  0  0  0
 11 45  1  0  0  0  0
 11 46  1  0  0  0  0
 12 18  1  0  0  0  0
 12 47  1  0  0  0  0
 12 48  1  0  0  0  0
 13 21  1  0  0  0  0
 13 49  1  0  0  0  0
 13 50  1  0  0  0  0
 14 22  1  0  0  0  0
 14 51  1  0  0  0  0
 14 52  1  0  0  0  0
 15 53  1  0  0  0  0
 15 54  1  0  0  0  0
 16 55  1  0  0  0  0
 16 56  1  0  0  0  0
 17 19  1  0  0  0  0
 17 57  1  0  0  0  0
 17 58  1  0  0  0  0
 18 20  1  0  0  0  0
 18 59  1  0  0  0  0
 18 60  1  0  0  0  0
 19 23  1  0  0  0  0
 19 61  1  0  0  0  0
 19 62  1  0  0  0  0
 20 24  1  0  0  0  0
 20 63  1  0  0  0  0
 20 64  1  0  0  0  0
 21 65  1  0  0  0  0
 21 66  1  0  0  0  0
 21 67  1  0  0  0  0
 22 68  1  0  0  0  0
 22 69  1  0  0  0  0
 22 70  1  0  0  0  0
 23 25  1  0  0  0  0
 23 71  1  0  0  0  0
 23 72  1  0  0  0  0
 24 26  1  0  0  0  0
 24 73  1  0  0  0  0
 24 74  1  0  0  0  0
 25 75  1  0  0  0  0
 25 76  1  0  0  0  0
 25 77  1  0  0  0  0
 26 78  1  0  0  0  0
 26 79  1  0  0  0  0
 26 80  1  0  0  0  0
 27 29  1  0  0  0  0
 28 30  1  0  0  0  0
 29 30  1  0  0  0  0
 29 31  2  0  0  0  0
 30 32  2  0  0  0  0
 31 33  1  0  0  0  0
 31 81  1  0  0  0  0
 32 34  1  0  0  0  0
 32 82  1  0  0  0  0
 33 34  2  0  0  0  0
 33 83  1  0  0  0  0
 34 84  1  0  0  0  0
M  END
> <PUBCHEM_COMPOUND_CID>
3020990

> <PUBCHEM_COMPOUND_CANONICALIZED>
1

> <PUBCHEM_CACTVS_COMPLEXITY>
472

> <PUBCHEM_CACTVS_HBOND_ACCEPTOR>
4

> <PUBCHEM_CACTVS_HBOND_DONOR>
0

> <PUBCHEM_CACTVS_ROTATABLE_BOND>
22

> <PUBCHEM_CACTVS_SUBSKEYS>
AAADcfB4OAAAAAAAAAAAAAAAAAAAAAAAAAAwAAAAAAAAAAABAAAAGgAAAAAADQCgmAIyCIAABACIAiDSCAACAAAkAAAIiAEACMgIJjKANRiCMQAkwAEIqYfLyOCOgAAAAAAQAAAAAAAAACAAAAAAAAAAAA==

> <PUBCHEM_IUPAC_OPENEYE_NAME>
bis(2-ethylnonyl) benzene-1,2-dicarboxylate

> <PUBCHEM_IUPAC_CAS_NAME>
benzene-1,2-dicarboxylic acid bis(2-ethylnonyl) ester

> <PUBCHEM_IUPAC_NAME_MARKUP>
bis(2-ethylnonyl) benzene-1,2-dicarboxylate

> <PUBCHEM_IUPAC_NAME>
bis(2-ethylnonyl) benzene-1,2-dicarboxylate

> <PUBCHEM_IUPAC_SYSTEMATIC_NAME>
bis(2-ethylnonyl) benzene-1,2-dicarboxylate

> <PUBCHEM_IUPAC_TRADITIONAL_NAME>
benzene-1,2-dicarboxylic acid bis(2-ethylnonyl) ester

> <PUBCHEM_IUPAC_INCHI>
InChI=1S/C30H50O4/c1-5-9-11-13-15-19-25(7-3)23-33-29(31)27-21-17-18-22-28(27)30(32)34-24-26(8-4)20-16-14-12-10-6-2/h17-18,21-22,25-26H,5-16,19-20,23-24H2,1-4H3

> <PUBCHEM_IUPAC_INCHIKEY>
LVFZGCKUCOADQM-UHFFFAOYSA-N

> <PUBCHEM_XLOGP3>
10.7

> <PUBCHEM_EXACT_MASS>
474.37091007

> <PUBCHEM_MOLECULAR_FORMULA>
C30H50O4

> <PUBCHEM_MOLECULAR_WEIGHT>
474.7

> <PUBCHEM_SMILES>
CCCCCCCC(CC)COC(=O)C1=CC=CC=C1C(=O)OCC(CC)CCCCCCC

> <PUBCHEM_OPENEYE_CAN_SMILES>
CCCCCCCC(CC)COC(=O)C1=CC=CC=C1C(=O)OCC(CC)CCCCCCC

> <PUBCHEM_OPENEYE_ISO_SMILES>
CCCCCCCC(CC)COC(=O)C1=CC=CC=C1C(=O)OCC(CC)CCCCCCC

> <PUBCHEM_CACTVS_TPSA>
52.6

> <PUBCHEM_MONOISOTOPIC_WEIGHT>
474.37091007

> <PUBCHEM_TOTAL_CHARGE>
0

> <PUBCHEM_HEAVY_ATOM_COUNT>
34

> <PUBCHEM_ATOM_DEF_STEREO_COUNT>
0

> <PUBCHEM_ATOM_UDEF_STEREO_COUNT>
2

> <PUBCHEM_BOND_DEF_STEREO_COUNT>
0

> <PUBCHEM_BOND_UDEF_STEREO_COUNT>
0

> <PUBCHEM_ISOTOPIC_ATOM_COUNT>
0

> <PUBCHEM_COMPONENT_COUNT>
1

> <PUBCHEM_CACTVS_TAUTO_COUNT>
-1

> <PUBCHEM_COORDINATE_TYPE>
1
5
255

> <PUBCHEM_BONDANNOTATIONS>
29  30  8
29  31  8
30  32  8
31  33  8
32  34  8
33  34  8
5  13  3
6  14  3

$$$$
