3020991
  -OEChem-04042506032D

 84 84  0     1  0  0  0  0  0999 V2000
   14.1244   -2.0000    0.0000 O   0  0  0  0  0  0  0  0  0  0  0  0
   10.6603   -4.0000    0.0000 O   0  0  0  0  0  0  0  0  0  0  0  0
   12.3923   -2.0000    0.0000 O   0  0  0  0  0  0  0  0  0  0  0  0
   11.5263   -2.5000    0.0000 O   0  0  0  0  0  0  0  0  0  0  0  0
   14.9904    0.5000    0.0000 C   0  0  0  0  0  0  0  0  0  0  0  0
    8.0622   -3.5000    0.0000 C   0  0  0  0  0  0  0  0  0  0  0  0
   15.8564    1.0000    0.0000 C   0  0  0  0  0  0  0  0  0  0  0  0
    7.1962   -4.0000    0.0000 C   0  0  0  0  0  0  0  0  0  0  0  0
   14.9904   -0.5000    0.0000 C   0  0  3  0  0  0  0  0  0  0  0  0
    8.9282   -4.0000    0.0000 C   0  0  3  0  0  0  0  0  0  0  0  0
   15.8564    2.0000    0.0000 C   0  0  0  0  0  0  0  0  0  0  0  0
    6.3301   -3.5000    0.0000 C   0  0  0  0  0  0  0  0  0  0  0  0
   16.7224    2.5000    0.0000 C   0  0  0  0  0  0  0  0  0  0  0  0
    5.4641   -4.0000    0.0000 C   0  0  0  0  0  0  0  0  0  0  0  0
   16.7224    3.5000    0.0000 C   0  0  0  0  0  0  0  0  0  0  0  0
    4.5981   -3.5000    0.0000 C   0  0  0  0  0  0  0  0  0  0  0  0
   14.1244   -1.0000    0.0000 C   0  0  0  0  0  0  0  0  0  0  0  0
    9.7942   -3.5000    0.0000 C   0  0  0  0  0  0  0  0  0  0  0  0
   17.5885    4.0000    0.0000 C   0  0  0  0  0  0  0  0  0  0  0  0
    3.7320   -4.0000    0.0000 C   0  0  0  0  0  0  0  0  0  0  0  0
   15.8564   -1.0000    0.0000 C   0  0  0  0  0  0  0  0  0  0  0  0
    8.9282   -5.0000    0.0000 C   0  0  0  0  0  0  0  0  0  0  0  0
   17.5885    5.0000    0.0000 C   0  0  0  0  0  0  0  0  0  0  0  0
    2.8660   -3.5000    0.0000 C   0  0  0  0  0  0  0  0  0  0  0  0
   18.4545    5.5000    0.0000 C   0  0  0  0  0  0  0  0  0  0  0  0
    2.0000   -4.0000    0.0000 C   0  0  0  0  0  0  0  0  0  0  0  0
   13.2583   -2.5000    0.0000 C   0  0  0  0  0  0  0  0  0  0  0  0
   11.5263   -3.5000    0.0000 C   0  0  0  0  0  0  0  0  0  0  0  0
   13.2583   -3.5000    0.0000 C   0  0  0  0  0  0  0  0  0  0  0  0
   12.3923   -4.0000    0.0000 C   0  0  0  0  0  0  0  0  0  0  0  0
   14.1244   -4.0000    0.0000 C   0  0  0  0  0  0  0  0  0  0  0  0
   12.3923   -5.0000    0.0000 C   0  0  0  0  0  0  0  0  0  0  0  0
   14.1244   -5.0000    0.0000 C   0  0  0  0  0  0  0  0  0  0  0  0
   13.2583   -5.5000    0.0000 C   0  0  0  0  0  0  0  0  0  0  0  0
   14.7783    1.0826    0.0000 H   0  0  0  0  0  0  0  0  0  0  0  0
   14.3798    0.3923    0.0000 H   0  0  0  0  0  0  0  0  0  0  0  0
    8.4607   -3.0250    0.0000 H   0  0  0  0  0  0  0  0  0  0  0  0
    7.6636   -3.0250    0.0000 H   0  0  0  0  0  0  0  0  0  0  0  0
   16.0685    0.4174    0.0000 H   0  0  0  0  0  0  0  0  0  0  0  0
   16.4670    1.1077    0.0000 H   0  0  0  0  0  0  0  0  0  0  0  0
    6.7976   -4.4750    0.0000 H   0  0  0  0  0  0  0  0  0  0  0  0
    7.5947   -4.4750    0.0000 H   0  0  0  0  0  0  0  0  0  0  0  0
   15.5273   -0.1900    0.0000 H   0  0  0  0  0  0  0  0  0  0  0  0
    9.4651   -4.3100    0.0000 H   0  0  0  0  0  0  0  0  0  0  0  0
   15.6444    2.5826    0.0000 H   0  0  0  0  0  0  0  0  0  0  0  0
   15.2458    1.8923    0.0000 H   0  0  0  0  0  0  0  0  0  0  0  0
    6.7287   -3.0250    0.0000 H   0  0  0  0  0  0  0  0  0  0  0  0
    5.9316   -3.0250    0.0000 H   0  0  0  0  0  0  0  0  0  0  0  0
   16.9345    1.9174    0.0000 H   0  0  0  0  0  0  0  0  0  0  0  0
   17.3330    2.6077    0.0000 H   0  0  0  0  0  0  0  0  0  0  0  0
    5.0656   -4.4750    0.0000 H   0  0  0  0  0  0  0  0  0  0  0  0
    5.8626   -4.4750    0.0000 H   0  0  0  0  0  0  0  0  0  0  0  0
   16.5104    4.0826    0.0000 H   0  0  0  0  0  0  0  0  0  0  0  0
   16.1119    3.3923    0.0000 H   0  0  0  0  0  0  0  0  0  0  0  0
    4.9966   -3.0250    0.0000 H   0  0  0  0  0  0  0  0  0  0  0  0
    4.1996   -3.0250    0.0000 H   0  0  0  0  0  0  0  0  0  0  0  0
   13.9123   -0.4174    0.0000 H   0  0  0  0  0  0  0  0  0  0  0  0
   13.5138   -1.1077    0.0000 H   0  0  0  0  0  0  0  0  0  0  0  0
   10.1928   -3.0250    0.0000 H   0  0  0  0  0  0  0  0  0  0  0  0
    9.3957   -3.0250    0.0000 H   0  0  0  0  0  0  0  0  0  0  0  0
   17.8005    3.4174    0.0000 H   0  0  0  0  0  0  0  0  0  0  0  0
   18.1990    4.1077    0.0000 H   0  0  0  0  0  0  0  0  0  0  0  0
    3.3335   -4.4750    0.0000 H   0  0  0  0  0  0  0  0  0  0  0  0
    4.1306   -4.4750    0.0000 H   0  0  0  0  0  0  0  0  0  0  0  0
   15.5464   -1.5369    0.0000 H   0  0  0  0  0  0  0  0  0  0  0  0
   16.3933   -1.3100    0.0000 H   0  0  0  0  0  0  0  0  0  0  0  0
   16.1664   -0.4631    0.0000 H   0  0  0  0  0  0  0  0  0  0  0  0
    8.3082   -5.0000    0.0000 H   0  0  0  0  0  0  0  0  0  0  0  0
    8.9282   -5.6200    0.0000 H   0  0  0  0  0  0  0  0  0  0  0  0
    9.5482   -5.0000    0.0000 H   0  0  0  0  0  0  0  0  0  0  0  0
   17.3764    5.5826    0.0000 H   0  0  0  0  0  0  0  0  0  0  0  0
   16.9779    4.8923    0.0000 H   0  0  0  0  0  0  0  0  0  0  0  0
    3.2646   -3.0250    0.0000 H   0  0  0  0  0  0  0  0  0  0  0  0
    2.4675   -3.0250    0.0000 H   0  0  0  0  0  0  0  0  0  0  0  0
   18.7645    4.9631    0.0000 H   0  0  0  0  0  0  0  0  0  0  0  0
   18.9914    5.8100    0.0000 H   0  0  0  0  0  0  0  0  0  0  0  0
   18.1445    6.0369    0.0000 H   0  0  0  0  0  0  0  0  0  0  0  0
    1.6900   -3.4631    0.0000 H   0  0  0  0  0  0  0  0  0  0  0  0
    1.4631   -4.3100    0.0000 H   0  0  0  0  0  0  0  0  0  0  0  0
    2.3100   -4.5369    0.0000 H   0  0  0  0  0  0  0  0  0  0  0  0
   14.6613   -3.6900    0.0000 H   0  0  0  0  0  0  0  0  0  0  0  0
   11.8554   -5.3100    0.0000 H   0  0  0  0  0  0  0  0  0  0  0  0
   14.6613   -5.3100    0.0000 H   0  0  0  0  0  0  0  0  0  0  0  0
   13.2583   -6.1200    0.0000 H   0  0  0  0  0  0  0  0  0  0  0  0
  1 17  1  0  0  0  0
  1 27  1  0  0  0  0
  2 18  1  0  0  0  0
  2 28  1  0  0  0  0
  3 27  2  0  0  0  0
  4 28  2  0  0  0  0
  5  7  1  0  0  0  0
  5  9  1  0  0  0  0
  5 35  1  0  0  0  0
  5 36  1  0  0  0  0
  6  8  1  0  0  0  0
  6 10  1  0  0  0  0
  6 37  1  0  0  0  0
  6 38  1  0  0  0  0
  7 11  1  0  0  0  0
  7 39  1  0  0  0  0
  7 40  1  0  0  0  0
  8 12  1  0  0  0  0
  8 41  1  0  0  0  0
  8 42  1  0  0  0  0
  9 17  1  0  0  0  0
  9 21  1  0  0  0  0
  9 43  1  0  0  0  0
 10 18  1  0  0  0  0
 10 22  1  0  0  0  0
 10 44  1  0  0  0  0
 11 13  1  0  0  0  0
 11 45  1  0  0  0  0
 11 46  1  0  0  0  0
 12 14  1  0  0  0  0
 12 47  1  0  0  0  0
 12 48  1  0  0  0  0
 13 15  1  0  0  0  0
 13 49  1  0  0  0  0
 13 50  1  0  0  0  0
 14 16  1  0  0  0  0
 14 51  1  0  0  0  0
 14 52  1  0  0  0  0
 15 19  1  0  0  0  0
 15 53  1  0  0  0  0
 15 54  1  0  0  0  0
 16 20  1  0  0  0  0
 16 55  1  0  0  0  0
 16 56  1  0  0  0  0
 17 57  1  0  0  0  0
 17 58  1  0  0  0  0
 18 59  1  0  0  0  0
 18 60  1  0  0  0  0
 19 23  1  0  0  0  0
 19 61  1  0  0  0  0
 19 62  1  0  0  0  0
 20 24  1  0  0  0  0
 20 63  1  0  0  0  0
 20 64  1  0  0  0  0
 21 65  1  0  0  0  0
 21 66  1  0  0  0  0
 21 67  1  0  0  0  0
 22 68  1  0  0  0  0
 22 69  1  0  0  0  0
 22 70  1  0  0  0  0
 23 25  1  0  0  0  0
 23 71  1  0  0  0  0
 23 72  1  0  0  0  0
 24 26  1  0  0  0  0
 24 73  1  0  0  0  0
 24 74  1  0  0  0  0
 25 75  1  0  0  0  0
 25 76  1  0  0  0  0
 25 77  1  0  0  0  0
 26 78  1  0  0  0  0
 26 79  1  0  0  0  0
 26 80  1  0  0  0  0
 27 29  1  0  0  0  0
 28 30  1  0  0  0  0
 29 30  1  0  0  0  0
 29 31  2  0  0  0  0
 30 32  2  0  0  0  0
 31 33  1  0  0  0  0
 31 81  1  0  0  0  0
 32 34  1  0  0  0  0
 32 82  1  0  0  0  0
 33 34  2  0  0  0  0
 33 83  1  0  0  0  0
 34 84  1  0  0  0  0
M  END
> <PUBCHEM_COMPOUND_CID>
3020991

> <PUBCHEM_COMPOUND_CANONICALIZED>
1

> <PUBCHEM_CACTVS_COMPLEXITY>
472

> <PUBCHEM_CACTVS_HBOND_ACCEPTOR>
4

> <PUBCHEM_CACTVS_HBOND_DONOR>
0

> <PUBCHEM_CACTVS_ROTATABLE_BOND>
22

> <PUBCHEM_CACTVS_SUBSKEYS>
AAADcfB4OAAAAAAAAAAAAAAAAAAAAAAAAAAwAAAAAAAAAAABAAAAGgAAAAAADQCgmAIyCIAABACIAiDSCAACAAAkAAAIiAEACMgIJjKANRiCMQAkwAEIqYfLyOCOgAAAAAAQAAAAAAAAACAAAAAAAAAAAA==

> <PUBCHEM_IUPAC_OPENEYE_NAME>
bis(2-methyldecyl) benzene-1,2-dicarboxylate

> <PUBCHEM_IUPAC_CAS_NAME>
benzene-1,2-dicarboxylic acid bis(2-methyldecyl) ester

> <PUBCHEM_IUPAC_NAME_MARKUP>
bis(2-methyldecyl) benzene-1,2-dicarboxylate

> <PUBCHEM_IUPAC_NAME>
bis(2-methyldecyl) benzene-1,2-dicarboxylate

> <PUBCHEM_IUPAC_SYSTEMATIC_NAME>
bis(2-methyldecyl) benzene-1,2-dicarboxylate

> <PUBCHEM_IUPAC_TRADITIONAL_NAME>
benzene-1,2-dicarboxylic acid bis(2-methyldecyl) ester

> <PUBCHEM_IUPAC_INCHI>
InChI=1S/C30H50O4/c1-5-7-9-11-13-15-19-25(3)23-33-29(31)27-21-17-18-22-28(27)30(32)34-24-26(4)20-16-14-12-10-8-6-2/h17-18,21-22,25-26H,5-16,19-20,23-24H2,1-4H3

> <PUBCHEM_IUPAC_INCHIKEY>
KROXVIOWGRNMQS-UHFFFAOYSA-N

> <PUBCHEM_XLOGP3>
11.3

> <PUBCHEM_EXACT_MASS>
474.37091007

> <PUBCHEM_MOLECULAR_FORMULA>
C30H50O4

> <PUBCHEM_MOLECULAR_WEIGHT>
474.7

> <PUBCHEM_SMILES>
CCCCCCCCC(C)COC(=O)C1=CC=CC=C1C(=O)OCC(C)CCCCCCCC

> <PUBCHEM_OPENEYE_CAN_SMILES>
CCCCCCCCC(C)COC(=O)C1=CC=CC=C1C(=O)OCC(C)CCCCCCCC

> <PUBCHEM_OPENEYE_ISO_SMILES>
CCCCCCCCC(C)COC(=O)C1=CC=CC=C1C(=O)OCC(C)CCCCCCCC

> <PUBCHEM_CACTVS_TPSA>
52.6

> <PUBCHEM_MONOISOTOPIC_WEIGHT>
474.37091007

> <PUBCHEM_TOTAL_CHARGE>
0

> <PUBCHEM_HEAVY_ATOM_COUNT>
34

> <PUBCHEM_ATOM_DEF_STEREO_COUNT>
0

> <PUBCHEM_ATOM_UDEF_STEREO_COUNT>
2

> <PUBCHEM_BOND_DEF_STEREO_COUNT>
0

> <PUBCHEM_BOND_UDEF_STEREO_COUNT>
0

> <PUBCHEM_ISOTOPIC_ATOM_COUNT>
0

> <PUBCHEM_COMPONENT_COUNT>
1

> <PUBCHEM_CACTVS_TAUTO_COUNT>
-1

> <PUBCHEM_COORDINATE_TYPE>
1
5
255

> <PUBCHEM_BONDANNOTATIONS>
10  22  3
29  30  8
29  31  8
30  32  8
31  33  8
32  34  8
33  34  8
9  21  3

$$$$
