3020989
  -OEChem-04042506022D

 78 78  0     1  0  0  0  0  0999 V2000
   12.3923   -1.2500    0.0000 O   0  0  0  0  0  0  0  0  0  0  0  0
    8.9282   -3.2500    0.0000 O   0  0  0  0  0  0  0  0  0  0  0  0
   10.6603   -1.2500    0.0000 O   0  0  0  0  0  0  0  0  0  0  0  0
    9.7942   -1.7500    0.0000 O   0  0  0  0  0  0  0  0  0  0  0  0
   13.2583    0.2500    0.0000 C   0  0  3  0  0  0  0  0  0  0  0  0
    7.1962   -3.2500    0.0000 C   0  0  3  0  0  0  0  0  0  0  0  0
   13.2583    1.2500    0.0000 C   0  0  0  0  0  0  0  0  0  0  0  0
    6.3301   -2.7500    0.0000 C   0  0  0  0  0  0  0  0  0  0  0  0
   14.1244    1.7500    0.0000 C   0  0  0  0  0  0  0  0  0  0  0  0
    5.4641   -3.2500    0.0000 C   0  0  0  0  0  0  0  0  0  0  0  0
   14.1244   -0.2500    0.0000 C   0  0  0  0  0  0  0  0  0  0  0  0
    7.1962   -4.2500    0.0000 C   0  0  0  0  0  0  0  0  0  0  0  0
   14.1244    2.7500    0.0000 C   0  0  0  0  0  0  0  0  0  0  0  0
    4.5981   -2.7500    0.0000 C   0  0  0  0  0  0  0  0  0  0  0  0
   12.3923   -0.2500    0.0000 C   0  0  0  0  0  0  0  0  0  0  0  0
    8.0622   -2.7500    0.0000 C   0  0  0  0  0  0  0  0  0  0  0  0
   14.9904    3.2500    0.0000 C   0  0  0  0  0  0  0  0  0  0  0  0
    3.7320   -3.2500    0.0000 C   0  0  0  0  0  0  0  0  0  0  0  0
   14.9904    0.2500    0.0000 C   0  0  0  0  0  0  0  0  0  0  0  0
    6.3301   -4.7500    0.0000 C   0  0  0  0  0  0  0  0  0  0  0  0
   14.9904    4.2500    0.0000 C   0  0  0  0  0  0  0  0  0  0  0  0
    2.8660   -2.7500    0.0000 C   0  0  0  0  0  0  0  0  0  0  0  0
   15.8564    4.7500    0.0000 C   0  0  0  0  0  0  0  0  0  0  0  0
    2.0000   -3.2500    0.0000 C   0  0  0  0  0  0  0  0  0  0  0  0
   11.5263   -1.7500    0.0000 C   0  0  0  0  0  0  0  0  0  0  0  0
    9.7942   -2.7500    0.0000 C   0  0  0  0  0  0  0  0  0  0  0  0
   11.5263   -2.7500    0.0000 C   0  0  0  0  0  0  0  0  0  0  0  0
   10.6603   -3.2500    0.0000 C   0  0  0  0  0  0  0  0  0  0  0  0
   12.3923   -3.2500    0.0000 C   0  0  0  0  0  0  0  0  0  0  0  0
   10.6603   -4.2500    0.0000 C   0  0  0  0  0  0  0  0  0  0  0  0
   12.3923   -4.2500    0.0000 C   0  0  0  0  0  0  0  0  0  0  0  0
   11.5263   -4.7500    0.0000 C   0  0  0  0  0  0  0  0  0  0  0  0
   13.7953    0.5600    0.0000 H   0  0  0  0  0  0  0  0  0  0  0  0
    6.6592   -3.5600    0.0000 H   0  0  0  0  0  0  0  0  0  0  0  0
   13.0463    1.8326    0.0000 H   0  0  0  0  0  0  0  0  0  0  0  0
   12.6477    1.1423    0.0000 H   0  0  0  0  0  0  0  0  0  0  0  0
    6.7287   -2.2750    0.0000 H   0  0  0  0  0  0  0  0  0  0  0  0
    5.9316   -2.2750    0.0000 H   0  0  0  0  0  0  0  0  0  0  0  0
   14.3364    1.1674    0.0000 H   0  0  0  0  0  0  0  0  0  0  0  0
   14.7349    1.8577    0.0000 H   0  0  0  0  0  0  0  0  0  0  0  0
    5.0656   -3.7250    0.0000 H   0  0  0  0  0  0  0  0  0  0  0  0
    5.8626   -3.7250    0.0000 H   0  0  0  0  0  0  0  0  0  0  0  0
   13.7258   -0.7249    0.0000 H   0  0  0  0  0  0  0  0  0  0  0  0
   14.5229   -0.7249    0.0000 H   0  0  0  0  0  0  0  0  0  0  0  0
    7.4082   -4.8326    0.0000 H   0  0  0  0  0  0  0  0  0  0  0  0
    7.8067   -4.1423    0.0000 H   0  0  0  0  0  0  0  0  0  0  0  0
   13.9123    3.3326    0.0000 H   0  0  0  0  0  0  0  0  0  0  0  0
   13.5138    2.6423    0.0000 H   0  0  0  0  0  0  0  0  0  0  0  0
    4.9966   -2.2750    0.0000 H   0  0  0  0  0  0  0  0  0  0  0  0
    4.1996   -2.2750    0.0000 H   0  0  0  0  0  0  0  0  0  0  0  0
   12.1803    0.3326    0.0000 H   0  0  0  0  0  0  0  0  0  0  0  0
   11.7817   -0.3577    0.0000 H   0  0  0  0  0  0  0  0  0  0  0  0
    8.4607   -2.2750    0.0000 H   0  0  0  0  0  0  0  0  0  0  0  0
    7.6636   -2.2750    0.0000 H   0  0  0  0  0  0  0  0  0  0  0  0
   15.2024    2.6674    0.0000 H   0  0  0  0  0  0  0  0  0  0  0  0
   15.6010    3.3577    0.0000 H   0  0  0  0  0  0  0  0  0  0  0  0
    3.3335   -3.7250    0.0000 H   0  0  0  0  0  0  0  0  0  0  0  0
    4.1306   -3.7250    0.0000 H   0  0  0  0  0  0  0  0  0  0  0  0
   15.3004   -0.2869    0.0000 H   0  0  0  0  0  0  0  0  0  0  0  0
   15.5273    0.5600    0.0000 H   0  0  0  0  0  0  0  0  0  0  0  0
   14.6804    0.7869    0.0000 H   0  0  0  0  0  0  0  0  0  0  0  0
    6.0201   -4.2131    0.0000 H   0  0  0  0  0  0  0  0  0  0  0  0
    5.7932   -5.0600    0.0000 H   0  0  0  0  0  0  0  0  0  0  0  0
    6.6401   -5.2869    0.0000 H   0  0  0  0  0  0  0  0  0  0  0  0
   14.7783    4.8326    0.0000 H   0  0  0  0  0  0  0  0  0  0  0  0
   14.3798    4.1423    0.0000 H   0  0  0  0  0  0  0  0  0  0  0  0
    3.2646   -2.2750    0.0000 H   0  0  0  0  0  0  0  0  0  0  0  0
    2.4675   -2.2750    0.0000 H   0  0  0  0  0  0  0  0  0  0  0  0
   16.1664    4.2131    0.0000 H   0  0  0  0  0  0  0  0  0  0  0  0
   16.3933    5.0600    0.0000 H   0  0  0  0  0  0  0  0  0  0  0  0
   15.5464    5.2869    0.0000 H   0  0  0  0  0  0  0  0  0  0  0  0
    1.6900   -2.7131    0.0000 H   0  0  0  0  0  0  0  0  0  0  0  0
    1.4631   -3.5600    0.0000 H   0  0  0  0  0  0  0  0  0  0  0  0
    2.3100   -3.7869    0.0000 H   0  0  0  0  0  0  0  0  0  0  0  0
   12.9292   -2.9400    0.0000 H   0  0  0  0  0  0  0  0  0  0  0  0
   10.1233   -4.5600    0.0000 H   0  0  0  0  0  0  0  0  0  0  0  0
   12.9292   -4.5600    0.0000 H   0  0  0  0  0  0  0  0  0  0  0  0
   11.5263   -5.3700    0.0000 H   0  0  0  0  0  0  0  0  0  0  0  0
  1 15  1  0  0  0  0
  1 25  1  0  0  0  0
  2 16  1  0  0  0  0
  2 26  1  0  0  0  0
  3 25  2  0  0  0  0
  4 26  2  0  0  0  0
  5  7  1  0  0  0  0
  5 11  1  0  0  0  0
  5 15  1  0  0  0  0
  5 33  1  0  0  0  0
  6  8  1  0  0  0  0
  6 12  1  0  0  0  0
  6 16  1  0  0  0  0
  6 34  1  0  0  0  0
  7  9  1  0  0  0  0
  7 35  1  0  0  0  0
  7 36  1  0  0  0  0
  8 10  1  0  0  0  0
  8 37  1  0  0  0  0
  8 38  1  0  0  0  0
  9 13  1  0  0  0  0
  9 39  1  0  0  0  0
  9 40  1  0  0  0  0
 10 14  1  0  0  0  0
 10 41  1  0  0  0  0
 10 42  1  0  0  0  0
 11 19  1  0  0  0  0
 11 43  1  0  0  0  0
 11 44  1  0  0  0  0
 12 20  1  0  0  0  0
 12 45  1  0  0  0  0
 12 46  1  0  0  0  0
 13 17  1  0  0  0  0
 13 47  1  0  0  0  0
 13 48  1  0  0  0  0
 14 18  1  0  0  0  0
 14 49  1  0  0  0  0
 14 50  1  0  0  0  0
 15 51  1  0  0  0  0
 15 52  1  0  0  0  0
 16 53  1  0  0  0  0
 16 54  1  0  0  0  0
 17 21  1  0  0  0  0
 17 55  1  0  0  0  0
 17 56  1  0  0  0  0
 18 22  1  0  0  0  0
 18 57  1  0  0  0  0
 18 58  1  0  0  0  0
 19 59  1  0  0  0  0
 19 60  1  0  0  0  0
 19 61  1  0  0  0  0
 20 62  1  0  0  0  0
 20 63  1  0  0  0  0
 20 64  1  0  0  0  0
 21 23  1  0  0  0  0
 21 65  1  0  0  0  0
 21 66  1  0  0  0  0
 22 24  1  0  0  0  0
 22 67  1  0  0  0  0
 22 68  1  0  0  0  0
 23 69  1  0  0  0  0
 23 70  1  0  0  0  0
 23 71  1  0  0  0  0
 24 72  1  0  0  0  0
 24 73  1  0  0  0  0
 24 74  1  0  0  0  0
 25 27  1  0  0  0  0
 26 28  1  0  0  0  0
 27 28  1  0  0  0  0
 27 29  2  0  0  0  0
 28 30  2  0  0  0  0
 29 31  1  0  0  0  0
 29 75  1  0  0  0  0
 30 32  1  0  0  0  0
 30 76  1  0  0  0  0
 31 32  2  0  0  0  0
 31 77  1  0  0  0  0
 32 78  1  0  0  0  0
M  END
> <PUBCHEM_COMPOUND_CID>
3020989

> <PUBCHEM_COMPOUND_CANONICALIZED>
1

> <PUBCHEM_CACTVS_COMPLEXITY>
446

> <PUBCHEM_CACTVS_HBOND_ACCEPTOR>
4

> <PUBCHEM_CACTVS_HBOND_DONOR>
0

> <PUBCHEM_CACTVS_ROTATABLE_BOND>
20

> <PUBCHEM_CACTVS_SUBSKEYS>
AAADcfB4OAAAAAAAAAAAAAAAAAAAAAAAAAAwAAAAAAAAAAABAAAAGgAAAAAADQCgmAIyCIAABACIAiDSCAACAAAkAAAIiAEACMgIJjKANRiCMQAkwAEIqYfLyOCOgAAAAAAQAAAAAAAAACAAAAAAAAAAAA==

> <PUBCHEM_IUPAC_OPENEYE_NAME>
bis(2-ethyloctyl) benzene-1,2-dicarboxylate

> <PUBCHEM_IUPAC_CAS_NAME>
benzene-1,2-dicarboxylic acid bis(2-ethyloctyl) ester

> <PUBCHEM_IUPAC_NAME_MARKUP>
bis(2-ethyloctyl) benzene-1,2-dicarboxylate

> <PUBCHEM_IUPAC_NAME>
bis(2-ethyloctyl) benzene-1,2-dicarboxylate

> <PUBCHEM_IUPAC_SYSTEMATIC_NAME>
bis(2-ethyloctyl) benzene-1,2-dicarboxylate

> <PUBCHEM_IUPAC_TRADITIONAL_NAME>
benzene-1,2-dicarboxylic acid bis(2-ethyloctyl) ester

> <PUBCHEM_IUPAC_INCHI>
InChI=1S/C28H46O4/c1-5-9-11-13-17-23(7-3)21-31-27(29)25-19-15-16-20-26(25)28(30)32-22-24(8-4)18-14-12-10-6-2/h15-16,19-20,23-24H,5-14,17-18,21-22H2,1-4H3

> <PUBCHEM_IUPAC_INCHIKEY>
ORKHXMGDPOGDKE-UHFFFAOYSA-N

> <PUBCHEM_XLOGP3>
9.6

> <PUBCHEM_EXACT_MASS>
446.33960994

> <PUBCHEM_MOLECULAR_FORMULA>
C28H46O4

> <PUBCHEM_MOLECULAR_WEIGHT>
446.7

> <PUBCHEM_SMILES>
CCCCCCC(CC)COC(=O)C1=CC=CC=C1C(=O)OCC(CC)CCCCCC

> <PUBCHEM_OPENEYE_CAN_SMILES>
CCCCCCC(CC)COC(=O)C1=CC=CC=C1C(=O)OCC(CC)CCCCCC

> <PUBCHEM_OPENEYE_ISO_SMILES>
CCCCCCC(CC)COC(=O)C1=CC=CC=C1C(=O)OCC(CC)CCCCCC

> <PUBCHEM_CACTVS_TPSA>
52.6

> <PUBCHEM_MONOISOTOPIC_WEIGHT>
446.33960994

> <PUBCHEM_TOTAL_CHARGE>
0

> <PUBCHEM_HEAVY_ATOM_COUNT>
32

> <PUBCHEM_ATOM_DEF_STEREO_COUNT>
0

> <PUBCHEM_ATOM_UDEF_STEREO_COUNT>
2

> <PUBCHEM_BOND_DEF_STEREO_COUNT>
0

> <PUBCHEM_BOND_UDEF_STEREO_COUNT>
0

> <PUBCHEM_ISOTOPIC_ATOM_COUNT>
0

> <PUBCHEM_COMPONENT_COUNT>
1

> <PUBCHEM_CACTVS_TAUTO_COUNT>
-1

> <PUBCHEM_COORDINATE_TYPE>
1
5
255

> <PUBCHEM_BONDANNOTATIONS>
27  28  8
27  29  8
28  30  8
29  31  8
30  32  8
31  32  8
5  11  3
6  12  3

$$$$
