3034942
  -OEChem-04042513072D

 88 88  0     1  0  0  0  0  0999 V2000
    5.0298   -8.1307    0.0000 O   0  0  0  0  0  0  0  0  0  0  0  0
    5.0868   -6.0429    0.0000 O   0  0  0  0  0  0  0  0  0  0  0  0
    2.4608   -7.8216    0.0000 O   0  0  0  0  0  0  0  0  0  0  0  0
    3.1330   -9.8907    0.0000 O   0  0  0  0  0  0  0  0  0  0  0  0
    3.3548   -5.0429    0.0000 O   0  0  0  0  0  0  0  0  0  0  0  0
    4.2208   -4.5429    0.0000 O   0  0  0  0  0  0  0  0  0  0  0  0
    4.2208   -7.5429    0.0000 C   0  0  3  0  0  0  0  0  0  0  0  0
    3.4118   -8.1307    0.0000 C   0  0  1  0  0  0  0  0  0  0  0  0
    3.7208   -9.0817    0.0000 C   0  0  2  0  0  0  0  0  0  0  0  0
    4.2208   -6.5429    0.0000 C   0  0  1  0  0  0  0  0  0  0  0  0
    4.7208   -9.0817    0.0000 C   0  0  0  0  0  0  0  0  0  0  0  0
    3.3548   -6.0429    0.0000 C   0  0  0  0  0  0  0  0  0  0  0  0
    9.4170    2.4571    0.0000 C   0  0  0  0  0  0  0  0  0  0  0  0
    9.4170    1.4571    0.0000 C   0  0  0  0  0  0  0  0  0  0  0  0
   10.2830    2.9571    0.0000 C   0  0  0  0  0  0  0  0  0  0  0  0
    8.5510    0.9571    0.0000 C   0  0  0  0  0  0  0  0  0  0  0  0
   10.2830    3.9571    0.0000 C   0  0  0  0  0  0  0  0  0  0  0  0
    8.5510   -0.0429    0.0000 C   0  0  0  0  0  0  0  0  0  0  0  0
   11.1490    4.4571    0.0000 C   0  0  0  0  0  0  0  0  0  0  0  0
    7.6849   -0.5429    0.0000 C   0  0  0  0  0  0  0  0  0  0  0  0
    7.6849   -1.5429    0.0000 C   0  0  0  0  0  0  0  0  0  0  0  0
   11.1490    5.4571    0.0000 C   0  0  0  0  0  0  0  0  0  0  0  0
    6.8189   -2.0429    0.0000 C   0  0  0  0  0  0  0  0  0  0  0  0
   12.0151    5.9571    0.0000 C   0  0  0  0  0  0  0  0  0  0  0  0
    6.8189   -3.0429    0.0000 C   0  0  0  0  0  0  0  0  0  0  0  0
   12.0151    6.9571    0.0000 C   0  0  0  0  0  0  0  0  0  0  0  0
    5.9529   -3.5429    0.0000 C   0  0  0  0  0  0  0  0  0  0  0  0
    5.9529   -4.5429    0.0000 C   0  0  0  0  0  0  0  0  0  0  0  0
   12.8811    7.4571    0.0000 C   0  0  0  0  0  0  0  0  0  0  0  0
    5.0868   -5.0429    0.0000 C   0  0  0  0  0  0  0  0  0  0  0  0
   12.8811    8.4571    0.0000 C   0  0  0  0  0  0  0  0  0  0  0  0
   13.7471    8.9571    0.0000 C   0  0  0  0  0  0  0  0  0  0  0  0
   13.7471    9.9571    0.0000 C   0  0  0  0  0  0  0  0  0  0  0  0
   14.6131   10.4571    0.0000 C   0  0  0  0  0  0  0  0  0  0  0  0
    4.7732   -7.2614    0.0000 H   0  0  0  0  0  0  0  0  0  0  0  0
    2.9734   -8.5691    0.0000 H   0  0  0  0  0  0  0  0  0  0  0  0
    4.0023   -9.6341    0.0000 H   0  0  0  0  0  0  0  0  0  0  0  0
    4.2208   -5.9229    0.0000 H   0  0  0  0  0  0  0  0  0  0  0  0
    4.6560   -9.6983    0.0000 H   0  0  0  0  0  0  0  0  0  0  0  0
    5.3273   -9.2106    0.0000 H   0  0  0  0  0  0  0  0  0  0  0  0
    2.7442   -5.9352    0.0000 H   0  0  0  0  0  0  0  0  0  0  0  0
    3.1428   -6.6255    0.0000 H   0  0  0  0  0  0  0  0  0  0  0  0
    9.2049    3.0397    0.0000 H   0  0  0  0  0  0  0  0  0  0  0  0
    8.8064    2.3495    0.0000 H   0  0  0  0  0  0  0  0  0  0  0  0
    9.6290    0.8745    0.0000 H   0  0  0  0  0  0  0  0  0  0  0  0
   10.0276    1.5648    0.0000 H   0  0  0  0  0  0  0  0  0  0  0  0
   10.4951    2.3745    0.0000 H   0  0  0  0  0  0  0  0  0  0  0  0
   10.8936    3.0648    0.0000 H   0  0  0  0  0  0  0  0  0  0  0  0
    8.3389    1.5397    0.0000 H   0  0  0  0  0  0  0  0  0  0  0  0
    7.9404    0.8495    0.0000 H   0  0  0  0  0  0  0  0  0  0  0  0
   10.0709    4.5397    0.0000 H   0  0  0  0  0  0  0  0  0  0  0  0
    9.6724    3.8495    0.0000 H   0  0  0  0  0  0  0  0  0  0  0  0
    8.7630   -0.6255    0.0000 H   0  0  0  0  0  0  0  0  0  0  0  0
    9.1615    0.0648    0.0000 H   0  0  0  0  0  0  0  0  0  0  0  0
   11.3611    3.8745    0.0000 H   0  0  0  0  0  0  0  0  0  0  0  0
   11.7596    4.5648    0.0000 H   0  0  0  0  0  0  0  0  0  0  0  0
    7.4729    0.0397    0.0000 H   0  0  0  0  0  0  0  0  0  0  0  0
    7.0743   -0.6505    0.0000 H   0  0  0  0  0  0  0  0  0  0  0  0
    7.8970   -2.1255    0.0000 H   0  0  0  0  0  0  0  0  0  0  0  0
    8.2955   -1.4352    0.0000 H   0  0  0  0  0  0  0  0  0  0  0  0
   10.9370    6.0397    0.0000 H   0  0  0  0  0  0  0  0  0  0  0  0
   10.5384    5.3495    0.0000 H   0  0  0  0  0  0  0  0  0  0  0  0
    2.0000   -8.2365    0.0000 H   0  0  0  0  0  0  0  0  0  0  0  0
    6.6068   -1.4603    0.0000 H   0  0  0  0  0  0  0  0  0  0  0  0
    6.2083   -2.1505    0.0000 H   0  0  0  0  0  0  0  0  0  0  0  0
   12.2271    5.3745    0.0000 H   0  0  0  0  0  0  0  0  0  0  0  0
   12.6256    6.0648    0.0000 H   0  0  0  0  0  0  0  0  0  0  0  0
    7.0310   -3.6255    0.0000 H   0  0  0  0  0  0  0  0  0  0  0  0
    7.4295   -2.9352    0.0000 H   0  0  0  0  0  0  0  0  0  0  0  0
    3.3852  -10.4571    0.0000 H   0  0  0  0  0  0  0  0  0  0  0  0
   11.8030    7.5397    0.0000 H   0  0  0  0  0  0  0  0  0  0  0  0
   11.4045    6.8495    0.0000 H   0  0  0  0  0  0  0  0  0  0  0  0
    5.7408   -2.9603    0.0000 H   0  0  0  0  0  0  0  0  0  0  0  0
    5.3423   -3.6505    0.0000 H   0  0  0  0  0  0  0  0  0  0  0  0
    6.1649   -5.1255    0.0000 H   0  0  0  0  0  0  0  0  0  0  0  0
    6.5635   -4.4352    0.0000 H   0  0  0  0  0  0  0  0  0  0  0  0
   13.0931    6.8745    0.0000 H   0  0  0  0  0  0  0  0  0  0  0  0
   13.4917    7.5648    0.0000 H   0  0  0  0  0  0  0  0  0  0  0  0
   12.6690    9.0397    0.0000 H   0  0  0  0  0  0  0  0  0  0  0  0
   12.2705    8.3495    0.0000 H   0  0  0  0  0  0  0  0  0  0  0  0
   13.9592    8.3745    0.0000 H   0  0  0  0  0  0  0  0  0  0  0  0
   14.3577    9.0648    0.0000 H   0  0  0  0  0  0  0  0  0  0  0  0
    2.8179   -4.7329    0.0000 H   0  0  0  0  0  0  0  0  0  0  0  0
   13.5351   10.5397    0.0000 H   0  0  0  0  0  0  0  0  0  0  0  0
   13.1365    9.8495    0.0000 H   0  0  0  0  0  0  0  0  0  0  0  0
   14.9231    9.9202    0.0000 H   0  0  0  0  0  0  0  0  0  0  0  0
   15.1501   10.7671    0.0000 H   0  0  0  0  0  0  0  0  0  0  0  0
   14.3031   10.9941    0.0000 H   0  0  0  0  0  0  0  0  0  0  0  0
  1  7  1  0  0  0  0
  1 11  1  0  0  0  0
 10  2  1  1  0  0  0
  2 30  1  0  0  0  0
  8  3  1  1  0  0  0
  3 63  1  0  0  0  0
  9  4  1  6  0  0  0
  4 70  1  0  0  0  0
  5 12  1  0  0  0  0
  5 83  1  0  0  0  0
  6 30  2  0  0  0  0
  7  8  1  0  0  0  0
  7 10  1  0  0  0  0
  7 35  1  0  0  0  0
  8  9  1  0  0  0  0
  8 36  1  0  0  0  0
  9 11  1  0  0  0  0
  9 37  1  0  0  0  0
 10 12  1  0  0  0  0
 10 38  1  0  0  0  0
 11 39  1  0  0  0  0
 11 40  1  0  0  0  0
 12 41  1  0  0  0  0
 12 42  1  0  0  0  0
 13 14  1  0  0  0  0
 13 15  1  0  0  0  0
 13 43  1  0  0  0  0
 13 44  1  0  0  0  0
 14 16  1  0  0  0  0
 14 45  1  0  0  0  0
 14 46  1  0  0  0  0
 15 17  1  0  0  0  0
 15 47  1  0  0  0  0
 15 48  1  0  0  0  0
 16 18  1  0  0  0  0
 16 49  1  0  0  0  0
 16 50  1  0  0  0  0
 17 19  1  0  0  0  0
 17 51  1  0  0  0  0
 17 52  1  0  0  0  0
 18 20  1  0  0  0  0
 18 53  1  0  0  0  0
 18 54  1  0  0  0  0
 19 22  1  0  0  0  0
 19 55  1  0  0  0  0
 19 56  1  0  0  0  0
 20 21  1  0  0  0  0
 20 57  1  0  0  0  0
 20 58  1  0  0  0  0
 21 23  1  0  0  0  0
 21 59  1  0  0  0  0
 21 60  1  0  0  0  0
 22 24  1  0  0  0  0
 22 61  1  0  0  0  0
 22 62  1  0  0  0  0
 23 25  1  0  0  0  0
 23 64  1  0  0  0  0
 23 65  1  0  0  0  0
 24 26  1  0  0  0  0
 24 66  1  0  0  0  0
 24 67  1  0  0  0  0
 25 27  1  0  0  0  0
 25 68  1  0  0  0  0
 25 69  1  0  0  0  0
 26 29  1  0  0  0  0
 26 71  1  0  0  0  0
 26 72  1  0  0  0  0
 27 28  1  0  0  0  0
 27 73  1  0  0  0  0
 27 74  1  0  0  0  0
 28 30  1  0  0  0  0
 28 75  1  0  0  0  0
 28 76  1  0  0  0  0
 29 31  1  0  0  0  0
 29 77  1  0  0  0  0
 29 78  1  0  0  0  0
 31 32  1  0  0  0  0
 31 79  1  0  0  0  0
 31 80  1  0  0  0  0
 32 33  1  0  0  0  0
 32 81  1  0  0  0  0
 32 82  1  0  0  0  0
 33 34  1  0  0  0  0
 33 84  1  0  0  0  0
 33 85  1  0  0  0  0
 34 86  1  0  0  0  0
 34 87  1  0  0  0  0
 34 88  1  0  0  0  0
M  END
> <PUBCHEM_COMPOUND_CID>
3034942

> <PUBCHEM_COMPOUND_CANONICALIZED>
1

> <PUBCHEM_CACTVS_COMPLEXITY>
472

> <PUBCHEM_CACTVS_HBOND_ACCEPTOR>
6

> <PUBCHEM_CACTVS_HBOND_DONOR>
3

> <PUBCHEM_CACTVS_ROTATABLE_BOND>
24

> <PUBCHEM_CACTVS_SUBSKEYS>
AAADcfB4OAAAAAAAAAAAAAAAAAAAASAAAAAAAAAAAAAAAAAAAAAAGgAACAAACBSggAICCAAABgAIAACQCAAAAAAAAAAAAAEAAAABEBIAAAACQAAFAAADAAHI6KyAAAAAAAAAAAAAAAAAAAAAAAAAAAAAAA==

> <PUBCHEM_IUPAC_OPENEYE_NAME>
[(1R)-1-[(3R,4S)-3,4-dihydroxytetrahydrofuran-2-yl]-2-hydroxy-ethyl] docosanoate

> <PUBCHEM_IUPAC_CAS_NAME>
docosanoic acid [(1R)-1-[(3R,4S)-3,4-dihydroxy-2-oxolanyl]-2-hydroxyethyl] ester

> <PUBCHEM_IUPAC_NAME_MARKUP>
[(1<I>R</I>)-1-[(3<I>R</I>,4<I>S</I>)-3,4-dihydroxyoxolan-2-yl]-2-hydroxyethyl] docosanoate

> <PUBCHEM_IUPAC_NAME>
[(1R)-1-[(3R,4S)-3,4-dihydroxyoxolan-2-yl]-2-hydroxyethyl] docosanoate

> <PUBCHEM_IUPAC_SYSTEMATIC_NAME>
[(1R)-1-[(3R,4S)-3,4-bis(oxidanyl)oxolan-2-yl]-2-oxidanyl-ethyl] docosanoate

> <PUBCHEM_IUPAC_TRADITIONAL_NAME>
behenic acid [(1R)-1-[(3R,4S)-3,4-dihydroxytetrahydrofuran-2-yl]-2-hydroxy-ethyl] ester

> <PUBCHEM_IUPAC_INCHI>
InChI=1S/C28H54O6/c1-2-3-4-5-6-7-8-9-10-11-12-13-14-15-16-17-18-19-20-21-26(31)34-25(22-29)28-27(32)24(30)23-33-28/h24-25,27-30,32H,2-23H2,1H3/t24-,25+,27+,28?/m0/s1

> <PUBCHEM_IUPAC_INCHIKEY>
GIZXIPWWFZNWJP-LUZHYNNESA-N

> <PUBCHEM_XLOGP3_AA>
8.5

> <PUBCHEM_EXACT_MASS>
486.39203944

> <PUBCHEM_MOLECULAR_FORMULA>
C28H54O6

> <PUBCHEM_MOLECULAR_WEIGHT>
486.7

> <PUBCHEM_SMILES>
CCCCCCCCCCCCCCCCCCCCCC(=O)O[C@H](CO)C1[C@@H]([C@H](CO1)O)O

> <PUBCHEM_OPENEYE_CAN_SMILES>
CCCCCCCCCCCCCCCCCCCCCC(=O)OC(CO)C1C(C(CO1)O)O

> <PUBCHEM_OPENEYE_ISO_SMILES>
CCCCCCCCCCCCCCCCCCCCCC(=O)O[C@H](CO)C1[C@@H]([C@H](CO1)O)O

> <PUBCHEM_CACTVS_TPSA>
96.2

> <PUBCHEM_MONOISOTOPIC_WEIGHT>
486.39203944

> <PUBCHEM_TOTAL_CHARGE>
0

> <PUBCHEM_HEAVY_ATOM_COUNT>
34

> <PUBCHEM_ATOM_DEF_STEREO_COUNT>
3

> <PUBCHEM_ATOM_UDEF_STEREO_COUNT>
1

> <PUBCHEM_BOND_DEF_STEREO_COUNT>
0

> <PUBCHEM_BOND_UDEF_STEREO_COUNT>
0

> <PUBCHEM_ISOTOPIC_ATOM_COUNT>
0

> <PUBCHEM_COMPONENT_COUNT>
1

> <PUBCHEM_CACTVS_TAUTO_COUNT>
-1

> <PUBCHEM_COORDINATE_TYPE>
1
5
255

> <PUBCHEM_BONDANNOTATIONS>
7  1  3
10  2  5
8  3  5
9  4  6

$$$$
