3085145
  -OEChem-04042505512D

 74 73  0     1  0  0  0  0  0999 V2000
    8.0622    3.5950    0.0000 O   0  0  0  0  0  0  0  0  0  0  0  0
   12.3923    2.0950    0.0000 O   0  0  0  0  0  0  0  0  0  0  0  0
   11.5263    3.5950    0.0000 O   0  0  0  0  0  0  0  0  0  0  0  0
   14.1244    1.0950    0.0000 O   0  0  0  0  0  0  0  0  0  0  0  0
   15.8564    2.0950    0.0000 O   0  0  0  0  0  0  0  0  0  0  0  0
   10.6603    2.0950    0.0000 C   0  0  3  0  0  0  0  0  0  0  0  0
    9.7942    2.5950    0.0000 C   0  0  0  0  0  0  0  0  0  0  0  0
   10.6603    1.0950    0.0000 C   0  0  0  0  0  0  0  0  0  0  0  0
    8.9282    2.0950    0.0000 C   0  0  0  0  0  0  0  0  0  0  0  0
    8.0622    2.5950    0.0000 C   0  0  3  0  0  0  0  0  0  0  0  0
    9.7942    0.5950    0.0000 C   0  0  0  0  0  0  0  0  0  0  0  0
    7.1962    2.0950    0.0000 C   0  0  0  0  0  0  0  0  0  0  0  0
    9.7942   -0.4050    0.0000 C   0  0  0  0  0  0  0  0  0  0  0  0
    6.3301    2.5950    0.0000 C   0  0  0  0  0  0  0  0  0  0  0  0
    8.9282   -0.9050    0.0000 C   0  0  0  0  0  0  0  0  0  0  0  0
    5.4641    2.0950    0.0000 C   0  0  0  0  0  0  0  0  0  0  0  0
   11.5263    2.5950    0.0000 C   0  0  0  0  0  0  0  0  0  0  0  0
    8.9282   -1.9050    0.0000 C   0  0  0  0  0  0  0  0  0  0  0  0
    4.5981    2.5950    0.0000 C   0  0  0  0  0  0  0  0  0  0  0  0
    8.0622   -2.4050    0.0000 C   0  0  0  0  0  0  0  0  0  0  0  0
    3.7320    2.0950    0.0000 C   0  0  0  0  0  0  0  0  0  0  0  0
    8.0622   -3.4050    0.0000 C   0  0  0  0  0  0  0  0  0  0  0  0
    2.8660    2.5950    0.0000 C   0  0  0  0  0  0  0  0  0  0  0  0
   13.2583    2.5950    0.0000 C   0  0  0  0  0  0  0  0  0  0  0  0
   14.1244    2.0950    0.0000 C   0  0  3  0  0  0  0  0  0  0  0  0
    7.1962   -3.9050    0.0000 C   0  0  0  0  0  0  0  0  0  0  0  0
    2.0000    2.0950    0.0000 C   0  0  0  0  0  0  0  0  0  0  0  0
   14.9904    2.5950    0.0000 C   0  0  0  0  0  0  0  0  0  0  0  0
   11.1972    1.7850    0.0000 H   0  0  0  0  0  0  0  0  0  0  0  0
   10.1928    3.0700    0.0000 H   0  0  0  0  0  0  0  0  0  0  0  0
    9.3957    3.0700    0.0000 H   0  0  0  0  0  0  0  0  0  0  0  0
   10.8723    0.5124    0.0000 H   0  0  0  0  0  0  0  0  0  0  0  0
   11.2708    1.2027    0.0000 H   0  0  0  0  0  0  0  0  0  0  0  0
    8.5297    1.6200    0.0000 H   0  0  0  0  0  0  0  0  0  0  0  0
    9.3267    1.6200    0.0000 H   0  0  0  0  0  0  0  0  0  0  0  0
    7.5252    2.9050    0.0000 H   0  0  0  0  0  0  0  0  0  0  0  0
    9.5822    1.1776    0.0000 H   0  0  0  0  0  0  0  0  0  0  0  0
    9.1836    0.4873    0.0000 H   0  0  0  0  0  0  0  0  0  0  0  0
    6.7976    1.6200    0.0000 H   0  0  0  0  0  0  0  0  0  0  0  0
    7.5947    1.6200    0.0000 H   0  0  0  0  0  0  0  0  0  0  0  0
   10.0063   -0.9876    0.0000 H   0  0  0  0  0  0  0  0  0  0  0  0
   10.4048   -0.2973    0.0000 H   0  0  0  0  0  0  0  0  0  0  0  0
    6.7287    3.0700    0.0000 H   0  0  0  0  0  0  0  0  0  0  0  0
    5.9316    3.0700    0.0000 H   0  0  0  0  0  0  0  0  0  0  0  0
    8.7162   -0.3224    0.0000 H   0  0  0  0  0  0  0  0  0  0  0  0
    8.3176   -1.0127    0.0000 H   0  0  0  0  0  0  0  0  0  0  0  0
    5.0656    1.6200    0.0000 H   0  0  0  0  0  0  0  0  0  0  0  0
    5.8626    1.6200    0.0000 H   0  0  0  0  0  0  0  0  0  0  0  0
    9.1403   -2.4876    0.0000 H   0  0  0  0  0  0  0  0  0  0  0  0
    9.5388   -1.7973    0.0000 H   0  0  0  0  0  0  0  0  0  0  0  0
    4.9966    3.0700    0.0000 H   0  0  0  0  0  0  0  0  0  0  0  0
    4.1996    3.0700    0.0000 H   0  0  0  0  0  0  0  0  0  0  0  0
    7.8501   -1.8224    0.0000 H   0  0  0  0  0  0  0  0  0  0  0  0
    7.4516   -2.5127    0.0000 H   0  0  0  0  0  0  0  0  0  0  0  0
    3.3335    1.6200    0.0000 H   0  0  0  0  0  0  0  0  0  0  0  0
    4.1306    1.6200    0.0000 H   0  0  0  0  0  0  0  0  0  0  0  0
    7.5252    3.9050    0.0000 H   0  0  0  0  0  0  0  0  0  0  0  0
    8.2742   -3.9876    0.0000 H   0  0  0  0  0  0  0  0  0  0  0  0
    8.6728   -3.2973    0.0000 H   0  0  0  0  0  0  0  0  0  0  0  0
    3.2646    3.0700    0.0000 H   0  0  0  0  0  0  0  0  0  0  0  0
    2.4675    3.0700    0.0000 H   0  0  0  0  0  0  0  0  0  0  0  0
   13.6569    3.0700    0.0000 H   0  0  0  0  0  0  0  0  0  0  0  0
   12.8598    3.0700    0.0000 H   0  0  0  0  0  0  0  0  0  0  0  0
   13.5874    1.7850    0.0000 H   0  0  0  0  0  0  0  0  0  0  0  0
    6.8862   -3.3681    0.0000 H   0  0  0  0  0  0  0  0  0  0  0  0
    6.6592   -4.2150    0.0000 H   0  0  0  0  0  0  0  0  0  0  0  0
    7.5062   -4.4419    0.0000 H   0  0  0  0  0  0  0  0  0  0  0  0
    1.6900    2.6319    0.0000 H   0  0  0  0  0  0  0  0  0  0  0  0
    1.4631    1.7850    0.0000 H   0  0  0  0  0  0  0  0  0  0  0  0
    2.3100    1.5581    0.0000 H   0  0  0  0  0  0  0  0  0  0  0  0
   15.3889    3.0700    0.0000 H   0  0  0  0  0  0  0  0  0  0  0  0
   14.5919    3.0700    0.0000 H   0  0  0  0  0  0  0  0  0  0  0  0
   14.6613    0.7850    0.0000 H   0  0  0  0  0  0  0  0  0  0  0  0
   16.3933    2.4050    0.0000 H   0  0  0  0  0  0  0  0  0  0  0  0
  1 10  1  0  0  0  0
  1 57  1  0  0  0  0
  2 17  1  0  0  0  0
  2 24  1  0  0  0  0
  3 17  2  0  0  0  0
  4 25  1  0  0  0  0
  4 73  1  0  0  0  0
  5 28  1  0  0  0  0
  5 74  1  0  0  0  0
  6  7  1  0  0  0  0
  6  8  1  0  0  0  0
  6 17  1  0  0  0  0
  6 29  1  0  0  0  0
  7  9  1  0  0  0  0
  7 30  1  0  0  0  0
  7 31  1  0  0  0  0
  8 11  1  0  0  0  0
  8 32  1  0  0  0  0
  8 33  1  0  0  0  0
  9 10  1  0  0  0  0
  9 34  1  0  0  0  0
  9 35  1  0  0  0  0
 10 12  1  0  0  0  0
 10 36  1  0  0  0  0
 11 13  1  0  0  0  0
 11 37  1  0  0  0  0
 11 38  1  0  0  0  0
 12 14  1  0  0  0  0
 12 39  1  0  0  0  0
 12 40  1  0  0  0  0
 13 15  1  0  0  0  0
 13 41  1  0  0  0  0
 13 42  1  0  0  0  0
 14 16  1  0  0  0  0
 14 43  1  0  0  0  0
 14 44  1  0  0  0  0
 15 18  1  0  0  0  0
 15 45  1  0  0  0  0
 15 46  1  0  0  0  0
 16 19  1  0  0  0  0
 16 47  1  0  0  0  0
 16 48  1  0  0  0  0
 18 20  1  0  0  0  0
 18 49  1  0  0  0  0
 18 50  1  0  0  0  0
 19 21  1  0  0  0  0
 19 51  1  0  0  0  0
 19 52  1  0  0  0  0
 20 22  1  0  0  0  0
 20 53  1  0  0  0  0
 20 54  1  0  0  0  0
 21 23  1  0  0  0  0
 21 55  1  0  0  0  0
 21 56  1  0  0  0  0
 22 26  1  0  0  0  0
 22 58  1  0  0  0  0
 22 59  1  0  0  0  0
 23 27  1  0  0  0  0
 23 60  1  0  0  0  0
 23 61  1  0  0  0  0
 24 25  1  0  0  0  0
 24 62  1  0  0  0  0
 24 63  1  0  0  0  0
 25 28  1  0  0  0  0
 25 64  1  0  0  0  0
 26 65  1  0  0  0  0
 26 66  1  0  0  0  0
 26 67  1  0  0  0  0
 27 68  1  0  0  0  0
 27 69  1  0  0  0  0
 27 70  1  0  0  0  0
 28 71  1  0  0  0  0
 28 72  1  0  0  0  0
M  END
> <PUBCHEM_COMPOUND_CID>
3085145

> <PUBCHEM_COMPOUND_CANONICALIZED>
1

> <PUBCHEM_CACTVS_COMPLEXITY>
348

> <PUBCHEM_CACTVS_HBOND_ACCEPTOR>
5

> <PUBCHEM_CACTVS_HBOND_DONOR>
3

> <PUBCHEM_CACTVS_ROTATABLE_BOND>
21

> <PUBCHEM_CACTVS_SUBSKEYS>
AAADcfB4OAAAAAAAAAAAAAAAAAAAAAAAAAAAAAAAAAAAAAAAAAAAGgAACAAADRSggAICCAAABgAIAACQCAAAAAAAAAAAAAEAAAABEBIAAAACQAAFAAADAAGI7OzOAAAAAAAAAAAAAAAAAAAAAAAAAAAAAA==

> <PUBCHEM_IUPAC_OPENEYE_NAME>
2,3-dihydroxypropyl 5-hydroxy-2-octyl-dodecanoate

> <PUBCHEM_IUPAC_CAS_NAME>
5-hydroxy-2-octyldodecanoic acid 2,3-dihydroxypropyl ester

> <PUBCHEM_IUPAC_NAME_MARKUP>
2,3-dihydroxypropyl 5-hydroxy-2-octyldodecanoate

> <PUBCHEM_IUPAC_NAME>
2,3-dihydroxypropyl 5-hydroxy-2-octyldodecanoate

> <PUBCHEM_IUPAC_SYSTEMATIC_NAME>
2,3-bis(oxidanyl)propyl 2-octyl-5-oxidanyl-dodecanoate

> <PUBCHEM_IUPAC_TRADITIONAL_NAME>
5-hydroxy-2-octyl-lauric acid glyceryl ester

> <PUBCHEM_IUPAC_INCHI>
InChI=1S/C23H46O5/c1-3-5-7-9-11-12-14-20(23(27)28-19-22(26)18-24)16-17-21(25)15-13-10-8-6-4-2/h20-22,24-26H,3-19H2,1-2H3

> <PUBCHEM_IUPAC_INCHIKEY>
OBTIXPYWUOHRHI-UHFFFAOYSA-N

> <PUBCHEM_XLOGP3_AA>
6.4

> <PUBCHEM_EXACT_MASS>
402.33452456

> <PUBCHEM_MOLECULAR_FORMULA>
C23H46O5

> <PUBCHEM_MOLECULAR_WEIGHT>
402.6

> <PUBCHEM_SMILES>
CCCCCCCCC(CCC(CCCCCCC)O)C(=O)OCC(CO)O

> <PUBCHEM_OPENEYE_CAN_SMILES>
CCCCCCCCC(CCC(CCCCCCC)O)C(=O)OCC(CO)O

> <PUBCHEM_OPENEYE_ISO_SMILES>
CCCCCCCCC(CCC(CCCCCCC)O)C(=O)OCC(CO)O

> <PUBCHEM_CACTVS_TPSA>
87

> <PUBCHEM_MONOISOTOPIC_WEIGHT>
402.33452456

> <PUBCHEM_TOTAL_CHARGE>
0

> <PUBCHEM_HEAVY_ATOM_COUNT>
28

> <PUBCHEM_ATOM_DEF_STEREO_COUNT>
0

> <PUBCHEM_ATOM_UDEF_STEREO_COUNT>
3

> <PUBCHEM_BOND_DEF_STEREO_COUNT>
0

> <PUBCHEM_BOND_UDEF_STEREO_COUNT>
0

> <PUBCHEM_ISOTOPIC_ATOM_COUNT>
0

> <PUBCHEM_COMPONENT_COUNT>
1

> <PUBCHEM_CACTVS_TAUTO_COUNT>
-1

> <PUBCHEM_COORDINATE_TYPE>
1
5
255

> <PUBCHEM_BONDANNOTATIONS>
10  1  3
25  4  3
6  8  3

$$$$
