3098422
  -OEChem-04042505362D

 40 44  0     0  0  0  0  0  0999 V2000
    8.9962    2.0000    0.0000 O   0  0  0  0  0  0  0  0  0  0  0  0
    5.5321   -2.0000    0.0000 O   0  0  0  0  0  0  0  0  0  0  0  0
    9.8622    3.5000    0.0000 O   0  0  0  0  0  0  0  0  0  0  0  0
    4.6660   -3.5000    0.0000 O   0  0  0  0  0  0  0  0  0  0  0  0
    9.8622    0.5000    0.0000 N   0  0  0  0  0  0  0  0  0  0  0  0
    4.6660   -0.5000    0.0000 N   0  0  0  0  0  0  0  0  0  0  0  0
    8.1301    0.5000    0.0000 C   0  0  0  0  0  0  0  0  0  0  0  0
    6.3981   -0.5000    0.0000 C   0  0  0  0  0  0  0  0  0  0  0  0
    8.9962    1.0000    0.0000 C   0  0  0  0  0  0  0  0  0  0  0  0
    5.5321   -1.0000    0.0000 C   0  0  0  0  0  0  0  0  0  0  0  0
    8.1301   -0.5000    0.0000 C   0  0  0  0  0  0  0  0  0  0  0  0
    7.2641   -1.0000    0.0000 C   0  0  0  0  0  0  0  0  0  0  0  0
    7.2641    1.0000    0.0000 C   0  0  0  0  0  0  0  0  0  0  0  0
    6.3981    0.5000    0.0000 C   0  0  0  0  0  0  0  0  0  0  0  0
   10.7282    1.0000    0.0000 C   0  0  0  0  0  0  0  0  0  0  0  0
    3.8000   -1.0000    0.0000 C   0  0  0  0  0  0  0  0  0  0  0  0
   10.7282    2.0000    0.0000 C   0  0  0  0  0  0  0  0  0  0  0  0
    3.8000   -2.0000    0.0000 C   0  0  0  0  0  0  0  0  0  0  0  0
    9.8622    2.5000    0.0000 C   0  0  0  0  0  0  0  0  0  0  0  0
    4.6660   -2.5000    0.0000 C   0  0  0  0  0  0  0  0  0  0  0  0
   11.6222    0.4653    0.0000 C   0  0  0  0  0  0  0  0  0  0  0  0
    2.9061   -0.4653    0.0000 C   0  0  0  0  0  0  0  0  0  0  0  0
   11.6222    2.5347    0.0000 C   0  0  0  0  0  0  0  0  0  0  0  0
    2.9061   -2.5347    0.0000 C   0  0  0  0  0  0  0  0  0  0  0  0
   12.5282    0.9792    0.0000 C   0  0  0  0  0  0  0  0  0  0  0  0
    2.0000   -0.9792    0.0000 C   0  0  0  0  0  0  0  0  0  0  0  0
   12.5282    2.0208    0.0000 C   0  0  0  0  0  0  0  0  0  0  0  0
    2.0000   -2.0208    0.0000 C   0  0  0  0  0  0  0  0  0  0  0  0
    8.6671   -0.8100    0.0000 H   0  0  0  0  0  0  0  0  0  0  0  0
    7.2641   -1.6200    0.0000 H   0  0  0  0  0  0  0  0  0  0  0  0
    7.2641    1.6200    0.0000 H   0  0  0  0  0  0  0  0  0  0  0  0
    5.8612    0.8100    0.0000 H   0  0  0  0  0  0  0  0  0  0  0  0
   11.6150   -0.1546    0.0000 H   0  0  0  0  0  0  0  0  0  0  0  0
    2.9132    0.1546    0.0000 H   0  0  0  0  0  0  0  0  0  0  0  0
   11.6150    3.1546    0.0000 H   0  0  0  0  0  0  0  0  0  0  0  0
    2.9132   -3.1546    0.0000 H   0  0  0  0  0  0  0  0  0  0  0  0
   13.0640    0.6671    0.0000 H   0  0  0  0  0  0  0  0  0  0  0  0
    1.4643   -0.6671    0.0000 H   0  0  0  0  0  0  0  0  0  0  0  0
   13.0640    2.3329    0.0000 H   0  0  0  0  0  0  0  0  0  0  0  0
    1.4643   -2.3329    0.0000 H   0  0  0  0  0  0  0  0  0  0  0  0
  1  9  1  0  0  0  0
  1 19  1  0  0  0  0
  2 10  1  0  0  0  0
  2 20  1  0  0  0  0
  3 19  2  0  0  0  0
  4 20  2  0  0  0  0
  5  9  2  0  0  0  0
  5 15  1  0  0  0  0
  6 10  2  0  0  0  0
  6 16  1  0  0  0  0
  7  9  1  0  0  0  0
  7 11  2  0  0  0  0
  7 13  1  0  0  0  0
  8 10  1  0  0  0  0
  8 12  2  0  0  0  0
  8 14  1  0  0  0  0
 11 12  1  0  0  0  0
 11 29  1  0  0  0  0
 12 30  1  0  0  0  0
 13 14  2  0  0  0  0
 13 31  1  0  0  0  0
 14 32  1  0  0  0  0
 15 17  1  0  0  0  0
 15 21  2  0  0  0  0
 16 18  1  0  0  0  0
 16 22  2  0  0  0  0
 17 19  1  0  0  0  0
 17 23  2  0  0  0  0
 18 20  1  0  0  0  0
 18 24  2  0  0  0  0
 21 25  1  0  0  0  0
 21 33  1  0  0  0  0
 22 26  1  0  0  0  0
 22 34  1  0  0  0  0
 23 27  1  0  0  0  0
 23 35  1  0  0  0  0
 24 28  1  0  0  0  0
 24 36  1  0  0  0  0
 25 27  2  0  0  0  0
 25 37  1  0  0  0  0
 26 28  2  0  0  0  0
 26 38  1  0  0  0  0
 27 39  1  0  0  0  0
 28 40  1  0  0  0  0
M  END
> <PUBCHEM_COMPOUND_CID>
3098422

> <PUBCHEM_COMPOUND_CANONICALIZED>
1

> <PUBCHEM_CACTVS_COMPLEXITY>
647

> <PUBCHEM_CACTVS_HBOND_ACCEPTOR>
6

> <PUBCHEM_CACTVS_HBOND_DONOR>
0

> <PUBCHEM_CACTVS_ROTATABLE_BOND>
2

> <PUBCHEM_CACTVS_SUBSKEYS>
AAADccB7OAAAAAAAAAAAAAAAAAAAAAAAAAAwYMECAAAAAACBUAAAHgAAAAAADAiBmAAwyIIABACoAiTyTACCAAAkAgAIiAEgbNgIJrqAtZmCMYBmwAEI6ceYyDCOQAAAAAACAACAAAAAAAQAAAAAAAAAAA==

> <PUBCHEM_IUPAC_OPENEYE_NAME>
2-[4-(4-oxo-3,1-benzoxazin-2-yl)phenyl]-3,1-benzoxazin-4-one

> <PUBCHEM_IUPAC_CAS_NAME>
2-[4-(4-oxo-3,1-benzoxazin-2-yl)phenyl]-3,1-benzoxazin-4-one

> <PUBCHEM_IUPAC_NAME_MARKUP>
2-[4-(4-oxo-3,1-benzoxazin-2-yl)phenyl]-3,1-benzoxazin-4-one

> <PUBCHEM_IUPAC_NAME>
2-[4-(4-oxo-3,1-benzoxazin-2-yl)phenyl]-3,1-benzoxazin-4-one

> <PUBCHEM_IUPAC_SYSTEMATIC_NAME>
2-[4-(4-oxidanylidene-3,1-benzoxazin-2-yl)phenyl]-3,1-benzoxazin-4-one

> <PUBCHEM_IUPAC_TRADITIONAL_NAME>
2-[4-(4-keto-3,1-benzoxazin-2-yl)phenyl]-3,1-benzoxazin-4-one

> <PUBCHEM_IUPAC_INCHI>
InChI=1S/C22H12N2O4/c25-21-15-5-1-3-7-17(15)23-19(27-21)13-9-11-14(12-10-13)20-24-18-8-4-2-6-16(18)22(26)28-20/h1-12H

> <PUBCHEM_IUPAC_INCHIKEY>
BBITXNWQALLODC-UHFFFAOYSA-N

> <PUBCHEM_XLOGP3_AA>
3.9

> <PUBCHEM_EXACT_MASS>
368.07970687

> <PUBCHEM_MOLECULAR_FORMULA>
C22H12N2O4

> <PUBCHEM_MOLECULAR_WEIGHT>
368.3

> <PUBCHEM_SMILES>
C1=CC=C2C(=C1)C(=O)OC(=N2)C3=CC=C(C=C3)C4=NC5=CC=CC=C5C(=O)O4

> <PUBCHEM_OPENEYE_CAN_SMILES>
C1=CC=C2C(=C1)C(=O)OC(=N2)C3=CC=C(C=C3)C4=NC5=CC=CC=C5C(=O)O4

> <PUBCHEM_OPENEYE_ISO_SMILES>
C1=CC=C2C(=C1)C(=O)OC(=N2)C3=CC=C(C=C3)C4=NC5=CC=CC=C5C(=O)O4

> <PUBCHEM_CACTVS_TPSA>
77.3

> <PUBCHEM_MONOISOTOPIC_WEIGHT>
368.07970687

> <PUBCHEM_TOTAL_CHARGE>
0

> <PUBCHEM_HEAVY_ATOM_COUNT>
28

> <PUBCHEM_ATOM_DEF_STEREO_COUNT>
0

> <PUBCHEM_ATOM_UDEF_STEREO_COUNT>
0

> <PUBCHEM_BOND_DEF_STEREO_COUNT>
0

> <PUBCHEM_BOND_UDEF_STEREO_COUNT>
0

> <PUBCHEM_ISOTOPIC_ATOM_COUNT>
0

> <PUBCHEM_COMPONENT_COUNT>
1

> <PUBCHEM_CACTVS_TAUTO_COUNT>
-1

> <PUBCHEM_COORDINATE_TYPE>
1
5
255

> <PUBCHEM_BONDANNOTATIONS>
1  19  8
1  9  8
11  12  8
13  14  8
15  17  8
15  21  8
16  18  8
16  22  8
17  19  8
17  23  8
18  20  8
18  24  8
2  10  8
2  20  8
21  25  8
22  26  8
23  27  8
24  28  8
25  27  8
26  28  8
5  15  8
5  9  8
6  10  8
6  16  8
7  11  8
7  13  8
8  12  8
8  14  8

$$$$
