31215
  -OEChem-04042506022D

 25 24  0     0  0  0  0  0  0999 V2000
    4.5981    1.0000    0.0000 P   0  0  0  0  0  0  0  0  0  0  0  0
    5.4641    1.5000    0.0000 O   0  0  0  0  0  0  0  0  0  0  0  0
    3.7320    1.5000    0.0000 O   0  0  0  0  0  0  0  0  0  0  0  0
    4.5981    0.0000    0.0000 O   0  0  0  0  0  0  0  0  0  0  0  0
    6.3301    1.0000    0.0000 C   0  0  0  0  0  0  0  0  0  0  0  0
    2.8660    1.0000    0.0000 C   0  0  0  0  0  0  0  0  0  0  0  0
    3.7320   -0.5000    0.0000 C   0  0  0  0  0  0  0  0  0  0  0  0
    7.1962    1.5000    0.0000 C   0  0  0  0  0  0  0  0  0  0  0  0
    2.0000    1.5000    0.0000 C   0  0  0  0  0  0  0  0  0  0  0  0
    3.7320   -1.5000    0.0000 C   0  0  0  0  0  0  0  0  0  0  0  0
    5.9316    0.5251    0.0000 H   0  0  0  0  0  0  0  0  0  0  0  0
    6.7287    0.5251    0.0000 H   0  0  0  0  0  0  0  0  0  0  0  0
    2.4675    0.5251    0.0000 H   0  0  0  0  0  0  0  0  0  0  0  0
    3.2646    0.5251    0.0000 H   0  0  0  0  0  0  0  0  0  0  0  0
    3.5200    0.0826    0.0000 H   0  0  0  0  0  0  0  0  0  0  0  0
    3.1215   -0.6077    0.0000 H   0  0  0  0  0  0  0  0  0  0  0  0
    7.5062    0.9631    0.0000 H   0  0  0  0  0  0  0  0  0  0  0  0
    7.7331    1.8100    0.0000 H   0  0  0  0  0  0  0  0  0  0  0  0
    6.8862    2.0369    0.0000 H   0  0  0  0  0  0  0  0  0  0  0  0
    2.3100    2.0369    0.0000 H   0  0  0  0  0  0  0  0  0  0  0  0
    1.4631    1.8100    0.0000 H   0  0  0  0  0  0  0  0  0  0  0  0
    1.6900    0.9631    0.0000 H   0  0  0  0  0  0  0  0  0  0  0  0
    3.1120   -1.5000    0.0000 H   0  0  0  0  0  0  0  0  0  0  0  0
    3.7320   -2.1200    0.0000 H   0  0  0  0  0  0  0  0  0  0  0  0
    4.3520   -1.5000    0.0000 H   0  0  0  0  0  0  0  0  0  0  0  0
  1  2  1  0  0  0  0
  1  3  1  0  0  0  0
  1  4  1  0  0  0  0
  2  5  1  0  0  0  0
  3  6  1  0  0  0  0
  4  7  1  0  0  0  0
  5  8  1  0  0  0  0
  5 11  1  0  0  0  0
  5 12  1  0  0  0  0
  6  9  1  0  0  0  0
  6 13  1  0  0  0  0
  6 14  1  0  0  0  0
  7 10  1  0  0  0  0
  7 15  1  0  0  0  0
  7 16  1  0  0  0  0
  8 17  1  0  0  0  0
  8 18  1  0  0  0  0
  8 19  1  0  0  0  0
  9 20  1  0  0  0  0
  9 21  1  0  0  0  0
  9 22  1  0  0  0  0
 10 23  1  0  0  0  0
 10 24  1  0  0  0  0
 10 25  1  0  0  0  0
M  END
> <PUBCHEM_COMPOUND_CID>
31215

> <PUBCHEM_COMPOUND_CANONICALIZED>
1

> <PUBCHEM_CACTVS_COMPLEXITY>
55.7

> <PUBCHEM_CACTVS_HBOND_ACCEPTOR>
3

> <PUBCHEM_CACTVS_HBOND_DONOR>
0

> <PUBCHEM_CACTVS_ROTATABLE_BOND>
6

> <PUBCHEM_CACTVS_SUBSKEYS>
AAADccBgMAIAAAAAAAAAAAAAAAAAAAAAAAAAAAAAAAAAAAAAAAAAGgAAACAAAACggAICAAAAARAAAAAAAAAAAAAAAAAAAAAAAAAAAAAAAAAAAAAAAAAAAAAAAAAAAAAAAAAAAAAAAAAAAAAAAAAAAAAAAA==

> <PUBCHEM_IUPAC_OPENEYE_NAME>
triethyl phosphite

> <PUBCHEM_IUPAC_CAS_NAME>
phosphorous acid triethyl ester

> <PUBCHEM_IUPAC_NAME_MARKUP>
triethyl phosphite

> <PUBCHEM_IUPAC_NAME>
triethyl phosphite

> <PUBCHEM_IUPAC_SYSTEMATIC_NAME>
triethyl phosphite

> <PUBCHEM_IUPAC_TRADITIONAL_NAME>
phosphorous acid triethyl ester

> <PUBCHEM_IUPAC_INCHI>
InChI=1S/C6H15O3P/c1-4-7-10(8-5-2)9-6-3/h4-6H2,1-3H3

> <PUBCHEM_IUPAC_INCHIKEY>
BDZBKCUKTQZUTL-UHFFFAOYSA-N

> <PUBCHEM_XLOGP3_AA>
1.2

> <PUBCHEM_EXACT_MASS>
166.07588133

> <PUBCHEM_MOLECULAR_FORMULA>
C6H15O3P

> <PUBCHEM_MOLECULAR_WEIGHT>
166.16

> <PUBCHEM_SMILES>
CCOP(OCC)OCC

> <PUBCHEM_OPENEYE_CAN_SMILES>
CCOP(OCC)OCC

> <PUBCHEM_OPENEYE_ISO_SMILES>
CCOP(OCC)OCC

> <PUBCHEM_CACTVS_TPSA>
27.7

> <PUBCHEM_MONOISOTOPIC_WEIGHT>
166.07588133

> <PUBCHEM_TOTAL_CHARGE>
0

> <PUBCHEM_HEAVY_ATOM_COUNT>
10

> <PUBCHEM_ATOM_DEF_STEREO_COUNT>
0

> <PUBCHEM_ATOM_UDEF_STEREO_COUNT>
0

> <PUBCHEM_BOND_DEF_STEREO_COUNT>
0

> <PUBCHEM_BOND_UDEF_STEREO_COUNT>
0

> <PUBCHEM_ISOTOPIC_ATOM_COUNT>
0

> <PUBCHEM_COMPONENT_COUNT>
1

> <PUBCHEM_CACTVS_TAUTO_COUNT>
-1

> <PUBCHEM_COORDINATE_TYPE>
1
5
255

$$$$
