31263
  -OEChem-04042513072D

 19 18  0     0  0  0  0  0  0999 V2000
    4.5981    0.7500    0.0000 O   0  0  0  0  0  0  0  0  0  0  0  0
    3.7320   -0.7500    0.0000 O   0  0  0  0  0  0  0  0  0  0  0  0
    5.4641   -0.7500    0.0000 O   0  0  0  0  0  0  0  0  0  0  0  0
    2.8660    0.7500    0.0000 C   0  0  0  0  0  0  0  0  0  0  0  0
    6.3301    0.7500    0.0000 C   0  0  0  0  0  0  0  0  0  0  0  0
    3.7320    0.2500    0.0000 C   0  0  0  0  0  0  0  0  0  0  0  0
    5.4641    0.2500    0.0000 C   0  0  0  0  0  0  0  0  0  0  0  0
    2.0000    0.2500    0.0000 C   0  0  0  0  0  0  0  0  0  0  0  0
    7.1962    0.2500    0.0000 C   0  0  0  0  0  0  0  0  0  0  0  0
    3.2646    1.2250    0.0000 H   0  0  0  0  0  0  0  0  0  0  0  0
    2.4675    1.2250    0.0000 H   0  0  0  0  0  0  0  0  0  0  0  0
    6.7287    1.2250    0.0000 H   0  0  0  0  0  0  0  0  0  0  0  0
    5.9316    1.2250    0.0000 H   0  0  0  0  0  0  0  0  0  0  0  0
    1.6900    0.7869    0.0000 H   0  0  0  0  0  0  0  0  0  0  0  0
    1.4631   -0.0600    0.0000 H   0  0  0  0  0  0  0  0  0  0  0  0
    2.3100   -0.2869    0.0000 H   0  0  0  0  0  0  0  0  0  0  0  0
    6.8862   -0.2869    0.0000 H   0  0  0  0  0  0  0  0  0  0  0  0
    7.7331   -0.0600    0.0000 H   0  0  0  0  0  0  0  0  0  0  0  0
    7.5062    0.7869    0.0000 H   0  0  0  0  0  0  0  0  0  0  0  0
  1  6  1  0  0  0  0
  1  7  1  0  0  0  0
  2  6  2  0  0  0  0
  3  7  2  0  0  0  0
  4  6  1  0  0  0  0
  4  8  1  0  0  0  0
  4 10  1  0  0  0  0
  4 11  1  0  0  0  0
  5  7  1  0  0  0  0
  5  9  1  0  0  0  0
  5 12  1  0  0  0  0
  5 13  1  0  0  0  0
  8 14  1  0  0  0  0
  8 15  1  0  0  0  0
  8 16  1  0  0  0  0
  9 17  1  0  0  0  0
  9 18  1  0  0  0  0
  9 19  1  0  0  0  0
M  END
> <PUBCHEM_COMPOUND_CID>
31263

> <PUBCHEM_COMPOUND_CANONICALIZED>
1

> <PUBCHEM_CACTVS_COMPLEXITY>
103

> <PUBCHEM_CACTVS_HBOND_ACCEPTOR>
3

> <PUBCHEM_CACTVS_HBOND_DONOR>
0

> <PUBCHEM_CACTVS_ROTATABLE_BOND>
4

> <PUBCHEM_CACTVS_SUBSKEYS>
AAADccBgMAAAAAAAAAAAAAAAAAAAAAAAAAAAAAAAAAAAAAAAAAAAGgAAAAAACACAgAACCAAABAAIAACQCAAAAAAAAAAAAAEAAAAAAAAAAAACAAAAAAAAAAAAAAAAAAAAAAAAAAAAAAAAAAAAAAAAAAAAAA==

> <PUBCHEM_IUPAC_OPENEYE_NAME>
propanoyl propanoate

> <PUBCHEM_IUPAC_CAS_NAME>
propanoic acid 1-oxopropyl ester

> <PUBCHEM_IUPAC_NAME_MARKUP>
propanoyl propanoate

> <PUBCHEM_IUPAC_NAME>
propanoyl propanoate

> <PUBCHEM_IUPAC_SYSTEMATIC_NAME>
propanoyl propanoate

> <PUBCHEM_IUPAC_TRADITIONAL_NAME>
propionic acid propionyl ester

> <PUBCHEM_IUPAC_INCHI>
InChI=1S/C6H10O3/c1-3-5(7)9-6(8)4-2/h3-4H2,1-2H3

> <PUBCHEM_IUPAC_INCHIKEY>
WYVAMUWZEOHJOQ-UHFFFAOYSA-N

> <PUBCHEM_XLOGP3_AA>
0.8

> <PUBCHEM_EXACT_MASS>
130.062994177

> <PUBCHEM_MOLECULAR_FORMULA>
C6H10O3

> <PUBCHEM_MOLECULAR_WEIGHT>
130.14

> <PUBCHEM_SMILES>
CCC(=O)OC(=O)CC

> <PUBCHEM_OPENEYE_CAN_SMILES>
CCC(=O)OC(=O)CC

> <PUBCHEM_OPENEYE_ISO_SMILES>
CCC(=O)OC(=O)CC

> <PUBCHEM_CACTVS_TPSA>
43.4

> <PUBCHEM_MONOISOTOPIC_WEIGHT>
130.062994177

> <PUBCHEM_TOTAL_CHARGE>
0

> <PUBCHEM_HEAVY_ATOM_COUNT>
9

> <PUBCHEM_ATOM_DEF_STEREO_COUNT>
0

> <PUBCHEM_ATOM_UDEF_STEREO_COUNT>
0

> <PUBCHEM_BOND_DEF_STEREO_COUNT>
0

> <PUBCHEM_BOND_UDEF_STEREO_COUNT>
0

> <PUBCHEM_ISOTOPIC_ATOM_COUNT>
0

> <PUBCHEM_COMPONENT_COUNT>
1

> <PUBCHEM_CACTVS_TAUTO_COUNT>
-1

> <PUBCHEM_COORDINATE_TYPE>
1
5
255

$$$$
