31344
  -OEChem-04042505362D

 19 18  0     0  0  0  0  0  0999 V2000
    2.5369   -0.0000    0.0000 O   0  0  0  0  0  0  0  0  0  0  0  0
    6.0010    0.0000    0.0000 O   0  0  0  0  0  0  0  0  0  0  0  0
    4.2690    0.0000    0.0000 C   0  0  0  0  0  0  0  0  0  0  0  0
    3.4030   -0.5000    0.0000 C   0  0  0  0  0  0  0  0  0  0  0  0
    5.1350    0.5000    0.0000 C   0  0  0  0  0  0  0  0  0  0  0  0
    3.7690    0.8660    0.0000 C   0  0  0  0  0  0  0  0  0  0  0  0
    4.7690   -0.8660    0.0000 C   0  0  0  0  0  0  0  0  0  0  0  0
    3.0044   -0.9749    0.0000 H   0  0  0  0  0  0  0  0  0  0  0  0
    3.8015   -0.9749    0.0000 H   0  0  0  0  0  0  0  0  0  0  0  0
    5.5335    0.9749    0.0000 H   0  0  0  0  0  0  0  0  0  0  0  0
    4.7365    0.9749    0.0000 H   0  0  0  0  0  0  0  0  0  0  0  0
    4.3059    1.1760    0.0000 H   0  0  0  0  0  0  0  0  0  0  0  0
    3.4590    1.4030    0.0000 H   0  0  0  0  0  0  0  0  0  0  0  0
    3.2320    0.5560    0.0000 H   0  0  0  0  0  0  0  0  0  0  0  0
    4.2320   -1.1760    0.0000 H   0  0  0  0  0  0  0  0  0  0  0  0
    5.0790   -1.4030    0.0000 H   0  0  0  0  0  0  0  0  0  0  0  0
    5.3059   -0.5560    0.0000 H   0  0  0  0  0  0  0  0  0  0  0  0
    2.0000   -0.3100    0.0000 H   0  0  0  0  0  0  0  0  0  0  0  0
    6.5380    0.3100    0.0000 H   0  0  0  0  0  0  0  0  0  0  0  0
  1  4  1  0  0  0  0
  1 18  1  0  0  0  0
  2  5  1  0  0  0  0
  2 19  1  0  0  0  0
  3  4  1  0  0  0  0
  3  5  1  0  0  0  0
  3  6  1  0  0  0  0
  3  7  1  0  0  0  0
  4  8  1  0  0  0  0
  4  9  1  0  0  0  0
  5 10  1  0  0  0  0
  5 11  1  0  0  0  0
  6 12  1  0  0  0  0
  6 13  1  0  0  0  0
  6 14  1  0  0  0  0
  7 15  1  0  0  0  0
  7 16  1  0  0  0  0
  7 17  1  0  0  0  0
M  END
> <PUBCHEM_COMPOUND_CID>
31344

> <PUBCHEM_COMPOUND_CANONICALIZED>
1

> <PUBCHEM_CACTVS_COMPLEXITY>
44

> <PUBCHEM_CACTVS_HBOND_ACCEPTOR>
2

> <PUBCHEM_CACTVS_HBOND_DONOR>
2

> <PUBCHEM_CACTVS_ROTATABLE_BOND>
2

> <PUBCHEM_CACTVS_SUBSKEYS>
AAADccBgMAAAAAAAAAAAAAAAAAAAAAAAAAAAAAAAAAAAAAAAAAAAGgAACAAADgCggAICAAAAAgAAAAAAAAAAAAAAAAAAAAAAAAAAEAAAAAAAQAABAAAAAAAAAAAAAAAAAAAAAAAAAAAAAAAAAAAAAAAAAA==

> <PUBCHEM_IUPAC_OPENEYE_NAME>
2,2-dimethylpropane-1,3-diol

> <PUBCHEM_IUPAC_CAS_NAME>
2,2-dimethylpropane-1,3-diol

> <PUBCHEM_IUPAC_NAME_MARKUP>
2,2-dimethylpropane-1,3-diol

> <PUBCHEM_IUPAC_NAME>
2,2-dimethylpropane-1,3-diol

> <PUBCHEM_IUPAC_SYSTEMATIC_NAME>
2,2-dimethylpropane-1,3-diol

> <PUBCHEM_IUPAC_TRADITIONAL_NAME>
2,2-dimethylpropane-1,3-diol

> <PUBCHEM_IUPAC_INCHI>
InChI=1S/C5H12O2/c1-5(2,3-6)4-7/h6-7H,3-4H2,1-2H3

> <PUBCHEM_IUPAC_INCHIKEY>
SLCVBVWXLSEKPL-UHFFFAOYSA-N

> <PUBCHEM_XLOGP3_AA>
0

> <PUBCHEM_EXACT_MASS>
104.083729621

> <PUBCHEM_MOLECULAR_FORMULA>
C5H12O2

> <PUBCHEM_MOLECULAR_WEIGHT>
104.15

> <PUBCHEM_SMILES>
CC(C)(CO)CO

> <PUBCHEM_OPENEYE_CAN_SMILES>
CC(C)(CO)CO

> <PUBCHEM_OPENEYE_ISO_SMILES>
CC(C)(CO)CO

> <PUBCHEM_CACTVS_TPSA>
40.5

> <PUBCHEM_MONOISOTOPIC_WEIGHT>
104.083729621

> <PUBCHEM_TOTAL_CHARGE>
0

> <PUBCHEM_HEAVY_ATOM_COUNT>
7

> <PUBCHEM_ATOM_DEF_STEREO_COUNT>
0

> <PUBCHEM_ATOM_UDEF_STEREO_COUNT>
0

> <PUBCHEM_BOND_DEF_STEREO_COUNT>
0

> <PUBCHEM_BOND_UDEF_STEREO_COUNT>
0

> <PUBCHEM_ISOTOPIC_ATOM_COUNT>
0

> <PUBCHEM_COMPONENT_COUNT>
1

> <PUBCHEM_CACTVS_TAUTO_COUNT>
-1

> <PUBCHEM_COORDINATE_TYPE>
1
5
255

$$$$
