31352
  -OEChem-04042505502D

 39 38  0     0  0  0  0  0  0999 V2000
    6.0010    0.0000    0.0000 O   0  0  0  0  0  0  0  0  0  0  0  0
    2.5369    0.0000    0.0000 O   0  0  0  0  0  0  0  0  0  0  0  0
    4.2690    1.7320    0.0000 O   0  0  0  0  0  0  0  0  0  0  0  0
    4.2690   -1.7320    0.0000 O   0  0  0  0  0  0  0  0  0  0  0  0
    9.4651   -0.0000    0.0000 O   0  0  0  0  0  0  0  0  0  0  0  0
    7.7331    1.7320    0.0000 O   0  0  0  0  0  0  0  0  0  0  0  0
    7.7331   -1.7320    0.0000 O   0  0  0  0  0  0  0  0  0  0  0  0
    4.2690    0.0000    0.0000 C   0  0  0  0  0  0  0  0  0  0  0  0
    7.7331   -0.0000    0.0000 C   0  0  0  0  0  0  0  0  0  0  0  0
    5.1350    0.5000    0.0000 C   0  0  0  0  0  0  0  0  0  0  0  0
    6.8671    0.5000    0.0000 C   0  0  0  0  0  0  0  0  0  0  0  0
    3.4030   -0.5000    0.0000 C   0  0  0  0  0  0  0  0  0  0  0  0
    3.7690    0.8660    0.0000 C   0  0  0  0  0  0  0  0  0  0  0  0
    4.7690   -0.8660    0.0000 C   0  0  0  0  0  0  0  0  0  0  0  0
    8.5991   -0.5000    0.0000 C   0  0  0  0  0  0  0  0  0  0  0  0
    8.2331    0.8660    0.0000 C   0  0  0  0  0  0  0  0  0  0  0  0
    7.2331   -0.8660    0.0000 C   0  0  0  0  0  0  0  0  0  0  0  0
    5.5335    0.9749    0.0000 H   0  0  0  0  0  0  0  0  0  0  0  0
    4.7365    0.9749    0.0000 H   0  0  0  0  0  0  0  0  0  0  0  0
    7.2656    0.9749    0.0000 H   0  0  0  0  0  0  0  0  0  0  0  0
    6.4685    0.9749    0.0000 H   0  0  0  0  0  0  0  0  0  0  0  0
    3.0044   -0.9749    0.0000 H   0  0  0  0  0  0  0  0  0  0  0  0
    3.8015   -0.9749    0.0000 H   0  0  0  0  0  0  0  0  0  0  0  0
    3.2940    1.2646    0.0000 H   0  0  0  0  0  0  0  0  0  0  0  0
    3.2940    0.4675    0.0000 H   0  0  0  0  0  0  0  0  0  0  0  0
    5.2439   -1.2646    0.0000 H   0  0  0  0  0  0  0  0  0  0  0  0
    5.2439   -0.4675    0.0000 H   0  0  0  0  0  0  0  0  0  0  0  0
    8.2006   -0.9749    0.0000 H   0  0  0  0  0  0  0  0  0  0  0  0
    8.9976   -0.9749    0.0000 H   0  0  0  0  0  0  0  0  0  0  0  0
    8.7080    0.4675    0.0000 H   0  0  0  0  0  0  0  0  0  0  0  0
    8.7080    1.2646    0.0000 H   0  0  0  0  0  0  0  0  0  0  0  0
    6.7581   -0.4675    0.0000 H   0  0  0  0  0  0  0  0  0  0  0  0
    6.7581   -1.2646    0.0000 H   0  0  0  0  0  0  0  0  0  0  0  0
    2.0000   -0.3100    0.0000 H   0  0  0  0  0  0  0  0  0  0  0  0
    3.9590    2.2690    0.0000 H   0  0  0  0  0  0  0  0  0  0  0  0
    4.5790   -2.2690    0.0000 H   0  0  0  0  0  0  0  0  0  0  0  0
   10.0021   -0.3100    0.0000 H   0  0  0  0  0  0  0  0  0  0  0  0
    8.0431    2.2690    0.0000 H   0  0  0  0  0  0  0  0  0  0  0  0
    7.4231   -2.2690    0.0000 H   0  0  0  0  0  0  0  0  0  0  0  0
  1 10  1  0  0  0  0
  1 11  1  0  0  0  0
  2 12  1  0  0  0  0
  2 34  1  0  0  0  0
  3 13  1  0  0  0  0
  3 35  1  0  0  0  0
  4 14  1  0  0  0  0
  4 36  1  0  0  0  0
  5 15  1  0  0  0  0
  5 37  1  0  0  0  0
  6 16  1  0  0  0  0
  6 38  1  0  0  0  0
  7 17  1  0  0  0  0
  7 39  1  0  0  0  0
  8 10  1  0  0  0  0
  8 12  1  0  0  0  0
  8 13  1  0  0  0  0
  8 14  1  0  0  0  0
  9 11  1  0  0  0  0
  9 15  1  0  0  0  0
  9 16  1  0  0  0  0
  9 17  1  0  0  0  0
 10 18  1  0  0  0  0
 10 19  1  0  0  0  0
 11 20  1  0  0  0  0
 11 21  1  0  0  0  0
 12 22  1  0  0  0  0
 12 23  1  0  0  0  0
 13 24  1  0  0  0  0
 13 25  1  0  0  0  0
 14 26  1  0  0  0  0
 14 27  1  0  0  0  0
 15 28  1  0  0  0  0
 15 29  1  0  0  0  0
 16 30  1  0  0  0  0
 16 31  1  0  0  0  0
 17 32  1  0  0  0  0
 17 33  1  0  0  0  0
M  END
> <PUBCHEM_COMPOUND_CID>
31352

> <PUBCHEM_COMPOUND_CANONICALIZED>
1

> <PUBCHEM_CACTVS_COMPLEXITY>
153

> <PUBCHEM_CACTVS_HBOND_ACCEPTOR>
7

> <PUBCHEM_CACTVS_HBOND_DONOR>
6

> <PUBCHEM_CACTVS_ROTATABLE_BOND>
10

> <PUBCHEM_CACTVS_SUBSKEYS>
AAADceBwOAAAAAAAAAAAAAAAAAAAAAAAAAAAAAAAAAAAAAAAAAAAGgAACAAADgCggAIAAAAABgAAAAAAAAAAAAAAAAAAAAAAAAAAEAAAAAACQAABAAAAAAAAAAAAAAAAAAAAAAAAAAAAAAAAAAAAAAAAAA==

> <PUBCHEM_IUPAC_OPENEYE_NAME>
2-[[3-hydroxy-2,2-bis(hydroxymethyl)propoxy]methyl]-2-(hydroxymethyl)propane-1,3-diol

> <PUBCHEM_IUPAC_CAS_NAME>
2-[[3-hydroxy-2,2-bis(hydroxymethyl)propoxy]methyl]-2-(hydroxymethyl)propane-1,3-diol

> <PUBCHEM_IUPAC_NAME_MARKUP>
2-[[3-hydroxy-2,2-bis(hydroxymethyl)propoxy]methyl]-2-(hydroxymethyl)propane-1,3-diol

> <PUBCHEM_IUPAC_NAME>
2-[[3-hydroxy-2,2-bis(hydroxymethyl)propoxy]methyl]-2-(hydroxymethyl)propane-1,3-diol

> <PUBCHEM_IUPAC_SYSTEMATIC_NAME>
2-[[2,2-bis(hydroxymethyl)-3-oxidanyl-propoxy]methyl]-2-(hydroxymethyl)propane-1,3-diol

> <PUBCHEM_IUPAC_TRADITIONAL_NAME>
2-[(3-hydroxy-2,2-dimethylol-propoxy)methyl]-2-methylol-propane-1,3-diol

> <PUBCHEM_IUPAC_INCHI>
InChI=1S/C10H22O7/c11-1-9(2-12,3-13)7-17-8-10(4-14,5-15)6-16/h11-16H,1-8H2

> <PUBCHEM_IUPAC_INCHIKEY>
TXBCBTDQIULDIA-UHFFFAOYSA-N

> <PUBCHEM_XLOGP3_AA>
-3.8

> <PUBCHEM_EXACT_MASS>
254.13655304

> <PUBCHEM_MOLECULAR_FORMULA>
C10H22O7

> <PUBCHEM_MOLECULAR_WEIGHT>
254.28

> <PUBCHEM_SMILES>
C(C(CO)(CO)COCC(CO)(CO)CO)O

> <PUBCHEM_OPENEYE_CAN_SMILES>
C(C(CO)(CO)COCC(CO)(CO)CO)O

> <PUBCHEM_OPENEYE_ISO_SMILES>
C(C(CO)(CO)COCC(CO)(CO)CO)O

> <PUBCHEM_CACTVS_TPSA>
131

> <PUBCHEM_MONOISOTOPIC_WEIGHT>
254.13655304

> <PUBCHEM_TOTAL_CHARGE>
0

> <PUBCHEM_HEAVY_ATOM_COUNT>
17

> <PUBCHEM_ATOM_DEF_STEREO_COUNT>
0

> <PUBCHEM_ATOM_UDEF_STEREO_COUNT>
0

> <PUBCHEM_BOND_DEF_STEREO_COUNT>
0

> <PUBCHEM_BOND_UDEF_STEREO_COUNT>
0

> <PUBCHEM_ISOTOPIC_ATOM_COUNT>
0

> <PUBCHEM_COMPONENT_COUNT>
1

> <PUBCHEM_CACTVS_TAUTO_COUNT>
-1

> <PUBCHEM_COORDINATE_TYPE>
1
5
255

$$$$
