31368
  -OEChem-04042505592D

 10  9  0     0  0  0  0  0  0999 V2000
    4.5981    1.0000    0.0000 N   0  0  0  0  0  0  0  0  0  0  0  0
    2.0000    0.5000    0.0000 C   0  0  0  0  0  0  0  0  0  0  0  0
    2.8660    0.0000    0.0000 C   0  0  0  0  0  0  0  0  0  0  0  0
    2.8660   -1.0000    0.0000 C   0  0  0  0  0  0  0  0  0  0  0  0
    3.7320    0.5000    0.0000 C   0  0  0  0  0  0  0  0  0  0  0  0
    2.3100    1.0369    0.0000 H   0  0  0  0  0  0  0  0  0  0  0  0
    1.4631    0.8100    0.0000 H   0  0  0  0  0  0  0  0  0  0  0  0
    1.6900   -0.0369    0.0000 H   0  0  0  0  0  0  0  0  0  0  0  0
    2.3291   -1.3100    0.0000 H   0  0  0  0  0  0  0  0  0  0  0  0
    3.4030   -1.3100    0.0000 H   0  0  0  0  0  0  0  0  0  0  0  0
  1  5  3  0  0  0  0
  2  3  1  0  0  0  0
  2  6  1  0  0  0  0
  2  7  1  0  0  0  0
  2  8  1  0  0  0  0
  3  4  2  0  0  0  0
  3  5  1  0  0  0  0
  4  9  1  0  0  0  0
  4 10  1  0  0  0  0
M  END
> <PUBCHEM_COMPOUND_CID>
31368

> <PUBCHEM_COMPOUND_CANONICALIZED>
1

> <PUBCHEM_CACTVS_COMPLEXITY>
83.1

> <PUBCHEM_CACTVS_HBOND_ACCEPTOR>
1

> <PUBCHEM_CACTVS_HBOND_DONOR>
0

> <PUBCHEM_CACTVS_ROTATABLE_BOND>
0

> <PUBCHEM_CACTVS_SUBSKEYS>
AAADcYBiAAAAAAAAAAAAAAAAAAAAAAAAAAAAAAAAAAAAAAAAAAAAHAAAAAAADACBAAACAAAAAACQBgBCAAAgAAAAAAAAAAAAAAAAgAAAAQAAAAAAAAAAAAAAAAAAAAAAAAAAAAAAAAAAAAAAAAAAAAAAAA==

> <PUBCHEM_IUPAC_OPENEYE_NAME>
2-methylprop-2-enenitrile

> <PUBCHEM_IUPAC_CAS_NAME>
2-methyl-2-propenenitrile

> <PUBCHEM_IUPAC_NAME_MARKUP>
2-methylprop-2-enenitrile

> <PUBCHEM_IUPAC_NAME>
2-methylprop-2-enenitrile

> <PUBCHEM_IUPAC_SYSTEMATIC_NAME>
2-methylprop-2-enenitrile

> <PUBCHEM_IUPAC_TRADITIONAL_NAME>
methacrylonitrile

> <PUBCHEM_IUPAC_INCHI>
InChI=1S/C4H5N/c1-4(2)3-5/h1H2,2H3

> <PUBCHEM_IUPAC_INCHIKEY>
GYCMBHHDWRMZGG-UHFFFAOYSA-N

> <PUBCHEM_XLOGP3>
0.7

> <PUBCHEM_EXACT_MASS>
67.042199164

> <PUBCHEM_MOLECULAR_FORMULA>
C4H5N

> <PUBCHEM_MOLECULAR_WEIGHT>
67.09

> <PUBCHEM_SMILES>
CC(=C)C#N

> <PUBCHEM_OPENEYE_CAN_SMILES>
CC(=C)C#N

> <PUBCHEM_OPENEYE_ISO_SMILES>
CC(=C)C#N

> <PUBCHEM_CACTVS_TPSA>
23.8

> <PUBCHEM_MONOISOTOPIC_WEIGHT>
67.042199164

> <PUBCHEM_TOTAL_CHARGE>
0

> <PUBCHEM_HEAVY_ATOM_COUNT>
5

> <PUBCHEM_ATOM_DEF_STEREO_COUNT>
0

> <PUBCHEM_ATOM_UDEF_STEREO_COUNT>
0

> <PUBCHEM_BOND_DEF_STEREO_COUNT>
0

> <PUBCHEM_BOND_UDEF_STEREO_COUNT>
0

> <PUBCHEM_ISOTOPIC_ATOM_COUNT>
0

> <PUBCHEM_COMPONENT_COUNT>
1

> <PUBCHEM_CACTVS_TAUTO_COUNT>
-1

> <PUBCHEM_COORDINATE_TYPE>
1
5
255

$$$$
