33510
  -OEChem-04042505512D

 19 18  0     1  0  0  0  0  0999 V2000
    6.0010   -0.0950    0.0000 O   0  0  0  0  0  0  0  0  0  0  0  0
    4.2690   -1.0950    0.0000 O   0  0  0  0  0  0  0  0  0  0  0  0
    2.5369   -0.0950    0.0000 O   0  0  0  0  0  0  0  0  0  0  0  0
    6.8671    1.4050    0.0000 O   0  0  0  0  0  0  0  0  0  0  0  0
    4.2690   -0.0950    0.0000 C   0  0  3  0  0  0  0  0  0  0  0  0
    5.1350    0.4050    0.0000 C   0  0  0  0  0  0  0  0  0  0  0  0
    3.4030    0.4050    0.0000 C   0  0  0  0  0  0  0  0  0  0  0  0
    6.8671    0.4050    0.0000 C   0  0  0  0  0  0  0  0  0  0  0  0
    7.7331   -0.0950    0.0000 C   0  0  0  0  0  0  0  0  0  0  0  0
    4.8059   -0.4050    0.0000 H   0  0  0  0  0  0  0  0  0  0  0  0
    5.5335    0.8799    0.0000 H   0  0  0  0  0  0  0  0  0  0  0  0
    4.7365    0.8799    0.0000 H   0  0  0  0  0  0  0  0  0  0  0  0
    3.8015    0.8799    0.0000 H   0  0  0  0  0  0  0  0  0  0  0  0
    3.0044    0.8799    0.0000 H   0  0  0  0  0  0  0  0  0  0  0  0
    3.7320   -1.4050    0.0000 H   0  0  0  0  0  0  0  0  0  0  0  0
    2.0000    0.2150    0.0000 H   0  0  0  0  0  0  0  0  0  0  0  0
    7.4231   -0.6319    0.0000 H   0  0  0  0  0  0  0  0  0  0  0  0
    8.2700   -0.4050    0.0000 H   0  0  0  0  0  0  0  0  0  0  0  0
    8.0431    0.4419    0.0000 H   0  0  0  0  0  0  0  0  0  0  0  0
  1  6  1  0  0  0  0
  1  8  1  0  0  0  0
  2  5  1  0  0  0  0
  2 15  1  0  0  0  0
  3  7  1  0  0  0  0
  3 16  1  0  0  0  0
  4  8  2  0  0  0  0
  5  6  1  0  0  0  0
  5  7  1  0  0  0  0
  5 10  1  0  0  0  0
  6 11  1  0  0  0  0
  6 12  1  0  0  0  0
  7 13  1  0  0  0  0
  7 14  1  0  0  0  0
  8  9  1  0  0  0  0
  9 17  1  0  0  0  0
  9 18  1  0  0  0  0
  9 19  1  0  0  0  0
M  END
> <PUBCHEM_COMPOUND_CID>
33510

> <PUBCHEM_COMPOUND_CANONICALIZED>
1

> <PUBCHEM_CACTVS_COMPLEXITY>
91

> <PUBCHEM_CACTVS_HBOND_ACCEPTOR>
4

> <PUBCHEM_CACTVS_HBOND_DONOR>
2

> <PUBCHEM_CACTVS_ROTATABLE_BOND>
4

> <PUBCHEM_CACTVS_SUBSKEYS>
AAADccBgOAAAAAAAAAAAAAAAAAAAAAAAAAAAAAAAAAAAAAAAAAAAGgAACAAACBSggAICCAAABgAIAACQCAAAAAAAAAAAAAAAAAABEAAAAAACQAABAAADAAAAAAAAAAAAAAAAAAAAAAAAAAAAAAAAAAAAAA==

> <PUBCHEM_IUPAC_OPENEYE_NAME>
2,3-dihydroxypropyl acetate

> <PUBCHEM_IUPAC_CAS_NAME>
acetic acid 2,3-dihydroxypropyl ester

> <PUBCHEM_IUPAC_NAME_MARKUP>
2,3-dihydroxypropyl acetate

> <PUBCHEM_IUPAC_NAME>
2,3-dihydroxypropyl acetate

> <PUBCHEM_IUPAC_SYSTEMATIC_NAME>
2,3-bis(oxidanyl)propyl ethanoate

> <PUBCHEM_IUPAC_TRADITIONAL_NAME>
acetic acid glyceryl ester

> <PUBCHEM_IUPAC_INCHI>
InChI=1S/C5H10O4/c1-4(7)9-3-5(8)2-6/h5-6,8H,2-3H2,1H3

> <PUBCHEM_IUPAC_INCHIKEY>
KMZHZAAOEWVPSE-UHFFFAOYSA-N

> <PUBCHEM_XLOGP3>
-1

> <PUBCHEM_EXACT_MASS>
134.05790880

> <PUBCHEM_MOLECULAR_FORMULA>
C5H10O4

> <PUBCHEM_MOLECULAR_WEIGHT>
134.13

> <PUBCHEM_SMILES>
CC(=O)OCC(CO)O

> <PUBCHEM_OPENEYE_CAN_SMILES>
CC(=O)OCC(CO)O

> <PUBCHEM_OPENEYE_ISO_SMILES>
CC(=O)OCC(CO)O

> <PUBCHEM_CACTVS_TPSA>
66.8

> <PUBCHEM_MONOISOTOPIC_WEIGHT>
134.05790880

> <PUBCHEM_TOTAL_CHARGE>
0

> <PUBCHEM_HEAVY_ATOM_COUNT>
9

> <PUBCHEM_ATOM_DEF_STEREO_COUNT>
0

> <PUBCHEM_ATOM_UDEF_STEREO_COUNT>
1

> <PUBCHEM_BOND_DEF_STEREO_COUNT>
0

> <PUBCHEM_BOND_UDEF_STEREO_COUNT>
0

> <PUBCHEM_ISOTOPIC_ATOM_COUNT>
0

> <PUBCHEM_COMPONENT_COUNT>
1

> <PUBCHEM_CACTVS_TAUTO_COUNT>
-1

> <PUBCHEM_COORDINATE_TYPE>
1
5
255

> <PUBCHEM_BONDANNOTATIONS>
5  2  3

$$$$
