33528
  -OEChem-04042512282D

 33 33  0     0  0  0  0  0  0999 V2000
    4.5691    2.8184    0.0000 S   0  0  0  0  0  0  0  0  0  0  0  0
    2.0000    2.5094    0.0000 O   0  0  0  0  0  0  0  0  0  0  0  0
    3.7601    2.2306    0.0000 N   0  0  0  0  0  0  0  0  0  0  0  0
    5.4921   -0.7694    0.0000 C   0  0  0  0  0  0  0  0  0  0  0  0
    4.6261   -0.2694    0.0000 C   0  0  0  0  0  0  0  0  0  0  0  0
    5.4921   -1.7694    0.0000 C   0  0  0  0  0  0  0  0  0  0  0  0
    4.6261    0.7306    0.0000 C   0  0  0  0  0  0  0  0  0  0  0  0
    6.3582   -2.2694    0.0000 C   0  0  0  0  0  0  0  0  0  0  0  0
    3.7601    1.2306    0.0000 C   0  0  0  0  0  0  0  0  0  0  0  0
    6.3582   -3.2694    0.0000 C   0  0  0  0  0  0  0  0  0  0  0  0
    7.2242   -3.7694    0.0000 C   0  0  0  0  0  0  0  0  0  0  0  0
    2.9511    2.8184    0.0000 C   0  0  0  0  0  0  0  0  0  0  0  0
    3.2601    3.7694    0.0000 C   0  0  0  0  0  0  0  0  0  0  0  0
    4.2601    3.7694    0.0000 C   0  0  0  0  0  0  0  0  0  0  0  0
    6.1027   -0.8771    0.0000 H   0  0  0  0  0  0  0  0  0  0  0  0
    5.7042   -0.1868    0.0000 H   0  0  0  0  0  0  0  0  0  0  0  0
    4.0155   -0.1618    0.0000 H   0  0  0  0  0  0  0  0  0  0  0  0
    4.4140   -0.8520    0.0000 H   0  0  0  0  0  0  0  0  0  0  0  0
    4.8815   -1.6618    0.0000 H   0  0  0  0  0  0  0  0  0  0  0  0
    5.2801   -2.3520    0.0000 H   0  0  0  0  0  0  0  0  0  0  0  0
    5.2367    0.6229    0.0000 H   0  0  0  0  0  0  0  0  0  0  0  0
    4.8382    1.3132    0.0000 H   0  0  0  0  0  0  0  0  0  0  0  0
    6.9687   -2.3771    0.0000 H   0  0  0  0  0  0  0  0  0  0  0  0
    6.5702   -1.6868    0.0000 H   0  0  0  0  0  0  0  0  0  0  0  0
    3.1495    1.3382    0.0000 H   0  0  0  0  0  0  0  0  0  0  0  0
    3.5480    0.6480    0.0000 H   0  0  0  0  0  0  0  0  0  0  0  0
    5.7476   -3.1618    0.0000 H   0  0  0  0  0  0  0  0  0  0  0  0
    6.1461   -3.8520    0.0000 H   0  0  0  0  0  0  0  0  0  0  0  0
    6.9142   -4.3064    0.0000 H   0  0  0  0  0  0  0  0  0  0  0  0
    7.7611   -4.0794    0.0000 H   0  0  0  0  0  0  0  0  0  0  0  0
    7.5342   -3.2325    0.0000 H   0  0  0  0  0  0  0  0  0  0  0  0
    2.8956    4.2710    0.0000 H   0  0  0  0  0  0  0  0  0  0  0  0
    4.6245    4.2710    0.0000 H   0  0  0  0  0  0  0  0  0  0  0  0
  1  3  1  0  0  0  0
  1 14  1  0  0  0  0
  2 12  2  0  0  0  0
  3  9  1  0  0  0  0
  3 12  1  0  0  0  0
  4  5  1  0  0  0  0
  4  6  1  0  0  0  0
  4 15  1  0  0  0  0
  4 16  1  0  0  0  0
  5  7  1  0  0  0  0
  5 17  1  0  0  0  0
  5 18  1  0  0  0  0
  6  8  1  0  0  0  0
  6 19  1  0  0  0  0
  6 20  1  0  0  0  0
  7  9  1  0  0  0  0
  7 21  1  0  0  0  0
  7 22  1  0  0  0  0
  8 10  1  0  0  0  0
  8 23  1  0  0  0  0
  8 24  1  0  0  0  0
  9 25  1  0  0  0  0
  9 26  1  0  0  0  0
 10 11  1  0  0  0  0
 10 27  1  0  0  0  0
 10 28  1  0  0  0  0
 11 29  1  0  0  0  0
 11 30  1  0  0  0  0
 11 31  1  0  0  0  0
 12 13  1  0  0  0  0
 13 14  2  0  0  0  0
 13 32  1  0  0  0  0
 14 33  1  0  0  0  0
M  END
> <PUBCHEM_COMPOUND_CID>
33528

> <PUBCHEM_COMPOUND_CANONICALIZED>
1

> <PUBCHEM_CACTVS_COMPLEXITY>
203

> <PUBCHEM_CACTVS_HBOND_ACCEPTOR>
2

> <PUBCHEM_CACTVS_HBOND_DONOR>
0

> <PUBCHEM_CACTVS_ROTATABLE_BOND>
7

> <PUBCHEM_CACTVS_SUBSKEYS>
AAADceByIABAAAAAAAAAAAAAAAAAAQAAAAAAAAAAAAAAAAAAAAAAHgQAQAAACADFwASCAAIAAACIACFSEACAAAAAAAAIAAAIAEAAAAIAgAAEAAAABgCAAIEQgIAAAAAAAAAAAAAAAAAAAAAAAAAAAAAAAA==

> <PUBCHEM_IUPAC_OPENEYE_NAME>
2-octylisothiazol-3-one

> <PUBCHEM_IUPAC_CAS_NAME>
2-octyl-3-isothiazolone

> <PUBCHEM_IUPAC_NAME_MARKUP>
2-octyl-1,2-thiazol-3-one

> <PUBCHEM_IUPAC_NAME>
2-octyl-1,2-thiazol-3-one

> <PUBCHEM_IUPAC_SYSTEMATIC_NAME>
2-octyl-1,2-thiazol-3-one

> <PUBCHEM_IUPAC_TRADITIONAL_NAME>
2-octyl-4-isothiazolin-3-one

> <PUBCHEM_IUPAC_INCHI>
InChI=1S/C11H19NOS/c1-2-3-4-5-6-7-9-12-11(13)8-10-14-12/h8,10H,2-7,9H2,1H3

> <PUBCHEM_IUPAC_INCHIKEY>
JPMIIZHYYWMHDT-UHFFFAOYSA-N

> <PUBCHEM_XLOGP3_AA>
3.5

> <PUBCHEM_EXACT_MASS>
213.11873540

> <PUBCHEM_MOLECULAR_FORMULA>
C11H19NOS

> <PUBCHEM_MOLECULAR_WEIGHT>
213.34

> <PUBCHEM_SMILES>
CCCCCCCCN1C(=O)C=CS1

> <PUBCHEM_OPENEYE_CAN_SMILES>
CCCCCCCCN1C(=O)C=CS1

> <PUBCHEM_OPENEYE_ISO_SMILES>
CCCCCCCCN1C(=O)C=CS1

> <PUBCHEM_CACTVS_TPSA>
45.6

> <PUBCHEM_MONOISOTOPIC_WEIGHT>
213.11873540

> <PUBCHEM_TOTAL_CHARGE>
0

> <PUBCHEM_HEAVY_ATOM_COUNT>
14

> <PUBCHEM_ATOM_DEF_STEREO_COUNT>
0

> <PUBCHEM_ATOM_UDEF_STEREO_COUNT>
0

> <PUBCHEM_BOND_DEF_STEREO_COUNT>
0

> <PUBCHEM_BOND_UDEF_STEREO_COUNT>
0

> <PUBCHEM_ISOTOPIC_ATOM_COUNT>
0

> <PUBCHEM_COMPONENT_COUNT>
1

> <PUBCHEM_CACTVS_TAUTO_COUNT>
-1

> <PUBCHEM_COORDINATE_TYPE>
1
5
255

> <PUBCHEM_BONDANNOTATIONS>
1  14  8
1  3  8
12  13  8
13  14  8
3  12  8

$$$$
