34277
  -OEChem-04042506022D

 72 72  0     1  0  0  0  0  0999 V2000
    7.1962   -2.7500    0.0000 O   0  0  0  0  0  0  0  0  0  0  0  0
   10.6603   -0.7500    0.0000 O   0  0  0  0  0  0  0  0  0  0  0  0
    8.0622   -1.2500    0.0000 O   0  0  0  0  0  0  0  0  0  0  0  0
    8.9282   -0.7500    0.0000 O   0  0  0  0  0  0  0  0  0  0  0  0
    2.8660   -2.2500    0.0000 C   0  0  0  0  0  0  0  0  0  0  0  0
   12.3923    3.2500    0.0000 C   0  0  0  0  0  0  0  0  0  0  0  0
    3.7320   -2.7500    0.0000 C   0  0  0  0  0  0  0  0  0  0  0  0
   12.3923    2.2500    0.0000 C   0  0  0  0  0  0  0  0  0  0  0  0
    4.5981   -2.2500    0.0000 C   0  0  3  0  0  0  0  0  0  0  0  0
   11.5263    1.7500    0.0000 C   0  0  3  0  0  0  0  0  0  0  0  0
    5.4641   -2.7500    0.0000 C   0  0  0  0  0  0  0  0  0  0  0  0
   11.5263    0.7500    0.0000 C   0  0  0  0  0  0  0  0  0  0  0  0
    2.0000   -1.7500    0.0000 C   0  0  0  0  0  0  0  0  0  0  0  0
    2.3660   -3.1160    0.0000 C   0  0  0  0  0  0  0  0  0  0  0  0
    3.3660   -1.3840    0.0000 C   0  0  0  0  0  0  0  0  0  0  0  0
   12.3923    4.2500    0.0000 C   0  0  0  0  0  0  0  0  0  0  0  0
   13.3923    3.2500    0.0000 C   0  0  0  0  0  0  0  0  0  0  0  0
   11.3923    3.2500    0.0000 C   0  0  0  0  0  0  0  0  0  0  0  0
    4.5981   -1.2500    0.0000 C   0  0  0  0  0  0  0  0  0  0  0  0
   10.6603    2.2500    0.0000 C   0  0  0  0  0  0  0  0  0  0  0  0
    6.3301   -2.2500    0.0000 C   0  0  0  0  0  0  0  0  0  0  0  0
   10.6603    0.2500    0.0000 C   0  0  0  0  0  0  0  0  0  0  0  0
    8.0622   -2.2500    0.0000 C   0  0  0  0  0  0  0  0  0  0  0  0
    9.7942   -1.2500    0.0000 C   0  0  0  0  0  0  0  0  0  0  0  0
    8.9282   -2.7500    0.0000 C   0  0  0  0  0  0  0  0  0  0  0  0
    9.7942   -2.2500    0.0000 C   0  0  0  0  0  0  0  0  0  0  0  0
    8.9282   -3.7500    0.0000 C   0  0  0  0  0  0  0  0  0  0  0  0
   10.6603   -2.7500    0.0000 C   0  0  0  0  0  0  0  0  0  0  0  0
    9.7942   -4.2500    0.0000 C   0  0  0  0  0  0  0  0  0  0  0  0
   10.6603   -3.7500    0.0000 C   0  0  0  0  0  0  0  0  0  0  0  0
    3.3335   -3.2250    0.0000 H   0  0  0  0  0  0  0  0  0  0  0  0
    4.1306   -3.2250    0.0000 H   0  0  0  0  0  0  0  0  0  0  0  0
   12.6044    1.6674    0.0000 H   0  0  0  0  0  0  0  0  0  0  0  0
   13.0029    2.3577    0.0000 H   0  0  0  0  0  0  0  0  0  0  0  0
    5.1350   -1.9400    0.0000 H   0  0  0  0  0  0  0  0  0  0  0  0
   10.9893    1.4400    0.0000 H   0  0  0  0  0  0  0  0  0  0  0  0
    5.0656   -3.2250    0.0000 H   0  0  0  0  0  0  0  0  0  0  0  0
    5.8626   -3.2250    0.0000 H   0  0  0  0  0  0  0  0  0  0  0  0
   11.7383    0.1674    0.0000 H   0  0  0  0  0  0  0  0  0  0  0  0
   12.1369    0.8577    0.0000 H   0  0  0  0  0  0  0  0  0  0  0  0
    2.3100   -1.2131    0.0000 H   0  0  0  0  0  0  0  0  0  0  0  0
    1.4631   -1.4400    0.0000 H   0  0  0  0  0  0  0  0  0  0  0  0
    1.6900   -2.2869    0.0000 H   0  0  0  0  0  0  0  0  0  0  0  0
    1.8291   -2.8060    0.0000 H   0  0  0  0  0  0  0  0  0  0  0  0
    2.0560   -3.6530    0.0000 H   0  0  0  0  0  0  0  0  0  0  0  0
    2.9030   -3.4260    0.0000 H   0  0  0  0  0  0  0  0  0  0  0  0
    3.9030   -1.6940    0.0000 H   0  0  0  0  0  0  0  0  0  0  0  0
    3.6760   -0.8470    0.0000 H   0  0  0  0  0  0  0  0  0  0  0  0
    2.8291   -1.0740    0.0000 H   0  0  0  0  0  0  0  0  0  0  0  0
   13.0123    4.2500    0.0000 H   0  0  0  0  0  0  0  0  0  0  0  0
   12.3923    4.8700    0.0000 H   0  0  0  0  0  0  0  0  0  0  0  0
   11.7723    4.2500    0.0000 H   0  0  0  0  0  0  0  0  0  0  0  0
   13.3923    2.6300    0.0000 H   0  0  0  0  0  0  0  0  0  0  0  0
   14.0123    3.2500    0.0000 H   0  0  0  0  0  0  0  0  0  0  0  0
   13.3923    3.8700    0.0000 H   0  0  0  0  0  0  0  0  0  0  0  0
   11.3923    3.8700    0.0000 H   0  0  0  0  0  0  0  0  0  0  0  0
   10.7723    3.2500    0.0000 H   0  0  0  0  0  0  0  0  0  0  0  0
   11.3923    2.6300    0.0000 H   0  0  0  0  0  0  0  0  0  0  0  0
    5.2181   -1.2500    0.0000 H   0  0  0  0  0  0  0  0  0  0  0  0
    4.5981   -0.6300    0.0000 H   0  0  0  0  0  0  0  0  0  0  0  0
    3.9781   -1.2500    0.0000 H   0  0  0  0  0  0  0  0  0  0  0  0
   10.9703    2.7869    0.0000 H   0  0  0  0  0  0  0  0  0  0  0  0
   10.1233    2.5600    0.0000 H   0  0  0  0  0  0  0  0  0  0  0  0
   10.3503    1.7131    0.0000 H   0  0  0  0  0  0  0  0  0  0  0  0
    6.7287   -1.7750    0.0000 H   0  0  0  0  0  0  0  0  0  0  0  0
    5.9316   -1.7750    0.0000 H   0  0  0  0  0  0  0  0  0  0  0  0
   10.4482    0.8326    0.0000 H   0  0  0  0  0  0  0  0  0  0  0  0
   10.0497    0.1423    0.0000 H   0  0  0  0  0  0  0  0  0  0  0  0
    8.3913   -4.0600    0.0000 H   0  0  0  0  0  0  0  0  0  0  0  0
   11.1972   -2.4400    0.0000 H   0  0  0  0  0  0  0  0  0  0  0  0
    9.7942   -4.8700    0.0000 H   0  0  0  0  0  0  0  0  0  0  0  0
   11.1972   -4.0600    0.0000 H   0  0  0  0  0  0  0  0  0  0  0  0
  1 21  1  0  0  0  0
  1 23  1  0  0  0  0
  2 22  1  0  0  0  0
  2 24  1  0  0  0  0
  3 23  2  0  0  0  0
  4 24  2  0  0  0  0
  5  7  1  0  0  0  0
  5 13  1  0  0  0  0
  5 14  1  0  0  0  0
  5 15  1  0  0  0  0
  6  8  1  0  0  0  0
  6 16  1  0  0  0  0
  6 17  1  0  0  0  0
  6 18  1  0  0  0  0
  7  9  1  0  0  0  0
  7 31  1  0  0  0  0
  7 32  1  0  0  0  0
  8 10  1  0  0  0  0
  8 33  1  0  0  0  0
  8 34  1  0  0  0  0
  9 11  1  0  0  0  0
  9 19  1  0  0  0  0
  9 35  1  0  0  0  0
 10 12  1  0  0  0  0
 10 20  1  0  0  0  0
 10 36  1  0  0  0  0
 11 21  1  0  0  0  0
 11 37  1  0  0  0  0
 11 38  1  0  0  0  0
 12 22  1  0  0  0  0
 12 39  1  0  0  0  0
 12 40  1  0  0  0  0
 13 41  1  0  0  0  0
 13 42  1  0  0  0  0
 13 43  1  0  0  0  0
 14 44  1  0  0  0  0
 14 45  1  0  0  0  0
 14 46  1  0  0  0  0
 15 47  1  0  0  0  0
 15 48  1  0  0  0  0
 15 49  1  0  0  0  0
 16 50  1  0  0  0  0
 16 51  1  0  0  0  0
 16 52  1  0  0  0  0
 17 53  1  0  0  0  0
 17 54  1  0  0  0  0
 17 55  1  0  0  0  0
 18 56  1  0  0  0  0
 18 57  1  0  0  0  0
 18 58  1  0  0  0  0
 19 59  1  0  0  0  0
 19 60  1  0  0  0  0
 19 61  1  0  0  0  0
 20 62  1  0  0  0  0
 20 63  1  0  0  0  0
 20 64  1  0  0  0  0
 21 65  1  0  0  0  0
 21 66  1  0  0  0  0
 22 67  1  0  0  0  0
 22 68  1  0  0  0  0
 23 25  1  0  0  0  0
 24 26  1  0  0  0  0
 25 26  1  0  0  0  0
 25 27  2  0  0  0  0
 26 28  2  0  0  0  0
 27 29  1  0  0  0  0
 27 69  1  0  0  0  0
 28 30  1  0  0  0  0
 28 70  1  0  0  0  0
 29 30  2  0  0  0  0
 29 71  1  0  0  0  0
 30 72  1  0  0  0  0
M  END
> <PUBCHEM_COMPOUND_CID>
34277

> <PUBCHEM_COMPOUND_CANONICALIZED>
1

> <PUBCHEM_CACTVS_COMPLEXITY>
478

> <PUBCHEM_CACTVS_HBOND_ACCEPTOR>
4

> <PUBCHEM_CACTVS_HBOND_DONOR>
0

> <PUBCHEM_CACTVS_ROTATABLE_BOND>
14

> <PUBCHEM_CACTVS_SUBSKEYS>
AAADcfB4OAAAAAAAAAAAAAAAAAAAAAAAAAAwAAAAAAAAAAABAAAAGgAAAAAADwCgmAIyCIAABACIAiDSCAACAAAkAAAIiAEACMgIJjKANRiCMQAkwAEIqYfLyLCPgAAAAAAQAAAAAAAAACAAAAAAAAAAAA==

> <PUBCHEM_IUPAC_OPENEYE_NAME>
bis(3,5,5-trimethylhexyl) benzene-1,2-dicarboxylate

> <PUBCHEM_IUPAC_CAS_NAME>
benzene-1,2-dicarboxylic acid bis(3,5,5-trimethylhexyl) ester

> <PUBCHEM_IUPAC_NAME_MARKUP>
bis(3,5,5-trimethylhexyl) benzene-1,2-dicarboxylate

> <PUBCHEM_IUPAC_NAME>
bis(3,5,5-trimethylhexyl) benzene-1,2-dicarboxylate

> <PUBCHEM_IUPAC_SYSTEMATIC_NAME>
bis(3,5,5-trimethylhexyl) benzene-1,2-dicarboxylate

> <PUBCHEM_IUPAC_TRADITIONAL_NAME>
benzene-1,2-dicarboxylic acid bis(3,5,5-trimethylhexyl) ester

> <PUBCHEM_IUPAC_INCHI>
InChI=1S/C26H42O4/c1-19(17-25(3,4)5)13-15-29-23(27)21-11-9-10-12-22(21)24(28)30-16-14-20(2)18-26(6,7)8/h9-12,19-20H,13-18H2,1-8H3

> <PUBCHEM_IUPAC_INCHIKEY>
GDJOUZYAIHWDCA-UHFFFAOYSA-N

> <PUBCHEM_XLOGP3>
9.1

> <PUBCHEM_EXACT_MASS>
418.30830982

> <PUBCHEM_MOLECULAR_FORMULA>
C26H42O4

> <PUBCHEM_MOLECULAR_WEIGHT>
418.6

> <PUBCHEM_SMILES>
CC(CCOC(=O)C1=CC=CC=C1C(=O)OCCC(C)CC(C)(C)C)CC(C)(C)C

> <PUBCHEM_OPENEYE_CAN_SMILES>
CC(CCOC(=O)C1=CC=CC=C1C(=O)OCCC(C)CC(C)(C)C)CC(C)(C)C

> <PUBCHEM_OPENEYE_ISO_SMILES>
CC(CCOC(=O)C1=CC=CC=C1C(=O)OCCC(C)CC(C)(C)C)CC(C)(C)C

> <PUBCHEM_CACTVS_TPSA>
52.6

> <PUBCHEM_MONOISOTOPIC_WEIGHT>
418.30830982

> <PUBCHEM_TOTAL_CHARGE>
0

> <PUBCHEM_HEAVY_ATOM_COUNT>
30

> <PUBCHEM_ATOM_DEF_STEREO_COUNT>
0

> <PUBCHEM_ATOM_UDEF_STEREO_COUNT>
2

> <PUBCHEM_BOND_DEF_STEREO_COUNT>
0

> <PUBCHEM_BOND_UDEF_STEREO_COUNT>
0

> <PUBCHEM_ISOTOPIC_ATOM_COUNT>
0

> <PUBCHEM_COMPONENT_COUNT>
1

> <PUBCHEM_CACTVS_TAUTO_COUNT>
-1

> <PUBCHEM_COORDINATE_TYPE>
1
5
255

> <PUBCHEM_BONDANNOTATIONS>
10  20  3
25  26  8
25  27  8
26  28  8
27  29  8
28  30  8
29  30  8
9  19  3

$$$$
