3601357
  -OEChem-04042505472D

 97100  0     0  0  0  0  0  0999 V2000
    4.8660   -2.0000    0.0000 P   0  0  0  0  0  0  0  0  0  0  0  0
    4.8660    2.0000    0.0000 P   0  0  0  0  0  0  0  0  0  0  0  0
    4.0000   -1.5000    0.0000 O   0  0  0  0  0  0  0  0  0  0  0  0
    5.7320   -1.5000    0.0000 O   0  0  0  0  0  0  0  0  0  0  0  0
    5.7320    1.5000    0.0000 O   0  0  0  0  0  0  0  0  0  0  0  0
    4.0000    1.5000    0.0000 O   0  0  0  0  0  0  0  0  0  0  0  0
    4.8660   -3.0000    0.0000 O   0  0  0  0  0  0  0  0  0  0  0  0
    4.8660    3.0000    0.0000 O   0  0  0  0  0  0  0  0  0  0  0  0
    4.8660   -0.0000    0.0000 C   0  0  0  0  0  0  0  0  0  0  0  0
    4.0000   -0.5000    0.0000 C   0  0  0  0  0  0  0  0  0  0  0  0
    5.7320   -0.5000    0.0000 C   0  0  0  0  0  0  0  0  0  0  0  0
    5.7320    0.5000    0.0000 C   0  0  0  0  0  0  0  0  0  0  0  0
    4.0000    0.5000    0.0000 C   0  0  0  0  0  0  0  0  0  0  0  0
    5.8661   -4.7320    0.0000 C   0  0  0  0  0  0  0  0  0  0  0  0
    3.8660    4.7320    0.0000 C   0  0  0  0  0  0  0  0  0  0  0  0
    2.8660   -3.0000    0.0000 C   0  0  0  0  0  0  0  0  0  0  0  0
    6.8660    3.0000    0.0000 C   0  0  0  0  0  0  0  0  0  0  0  0
    4.8661   -4.7321    0.0000 C   0  0  0  0  0  0  0  0  0  0  0  0
    4.8660    4.7320    0.0000 C   0  0  0  0  0  0  0  0  0  0  0  0
    3.3660   -3.8660    0.0000 C   0  0  0  0  0  0  0  0  0  0  0  0
    6.3660    3.8660    0.0000 C   0  0  0  0  0  0  0  0  0  0  0  0
    4.3660   -3.8660    0.0000 C   0  0  0  0  0  0  0  0  0  0  0  0
    5.3660    3.8660    0.0000 C   0  0  0  0  0  0  0  0  0  0  0  0
    4.3660   -5.5981    0.0000 C   0  0  0  0  0  0  0  0  0  0  0  0
    5.3660    5.5981    0.0000 C   0  0  0  0  0  0  0  0  0  0  0  0
    2.8660   -4.7320    0.0000 C   0  0  0  0  0  0  0  0  0  0  0  0
    6.8660    4.7320    0.0000 C   0  0  0  0  0  0  0  0  0  0  0  0
    6.8660   -4.7321    0.0000 C   0  0  0  0  0  0  0  0  0  0  0  0
    5.8661   -5.7320    0.0000 C   0  0  0  0  0  0  0  0  0  0  0  0
    5.8660   -3.7321    0.0000 C   0  0  0  0  0  0  0  0  0  0  0  0
    2.8660    4.7320    0.0000 C   0  0  0  0  0  0  0  0  0  0  0  0
    3.8660    5.7320    0.0000 C   0  0  0  0  0  0  0  0  0  0  0  0
    3.8660    3.7320    0.0000 C   0  0  0  0  0  0  0  0  0  0  0  0
    2.0000   -3.5000    0.0000 C   0  0  0  0  0  0  0  0  0  0  0  0
    2.3660   -2.1340    0.0000 C   0  0  0  0  0  0  0  0  0  0  0  0
    3.7320   -2.5000    0.0000 C   0  0  0  0  0  0  0  0  0  0  0  0
    7.7320    3.5000    0.0000 C   0  0  0  0  0  0  0  0  0  0  0  0
    7.3660    2.1340    0.0000 C   0  0  0  0  0  0  0  0  0  0  0  0
    6.0000    2.5000    0.0000 C   0  0  0  0  0  0  0  0  0  0  0  0
    3.3660   -5.5981    0.0000 C   0  0  0  0  0  0  0  0  0  0  0  0
    6.3660    5.5981    0.0000 C   0  0  0  0  0  0  0  0  0  0  0  0
    2.8660   -6.4641    0.0000 C   0  0  0  0  0  0  0  0  0  0  0  0
    6.8660    6.4641    0.0000 C   0  0  0  0  0  0  0  0  0  0  0  0
    3.7880    0.0826    0.0000 H   0  0  0  0  0  0  0  0  0  0  0  0
    3.3894   -0.6077    0.0000 H   0  0  0  0  0  0  0  0  0  0  0  0
    6.3426   -0.6077    0.0000 H   0  0  0  0  0  0  0  0  0  0  0  0
    5.9441    0.0826    0.0000 H   0  0  0  0  0  0  0  0  0  0  0  0
    5.9441   -0.0826    0.0000 H   0  0  0  0  0  0  0  0  0  0  0  0
    6.3426    0.6077    0.0000 H   0  0  0  0  0  0  0  0  0  0  0  0
    3.3894    0.6077    0.0000 H   0  0  0  0  0  0  0  0  0  0  0  0
    3.7880   -0.0826    0.0000 H   0  0  0  0  0  0  0  0  0  0  0  0
    4.6760   -6.1350    0.0000 H   0  0  0  0  0  0  0  0  0  0  0  0
    5.0560    6.1350    0.0000 H   0  0  0  0  0  0  0  0  0  0  0  0
    2.2460   -4.7320    0.0000 H   0  0  0  0  0  0  0  0  0  0  0  0
    7.4860    4.7320    0.0000 H   0  0  0  0  0  0  0  0  0  0  0  0
    6.8660   -5.3521    0.0000 H   0  0  0  0  0  0  0  0  0  0  0  0
    7.4860   -4.7321    0.0000 H   0  0  0  0  0  0  0  0  0  0  0  0
    6.8661   -4.1121    0.0000 H   0  0  0  0  0  0  0  0  0  0  0  0
    5.2461   -5.7320    0.0000 H   0  0  0  0  0  0  0  0  0  0  0  0
    5.8661   -6.3520    0.0000 H   0  0  0  0  0  0  0  0  0  0  0  0
    6.4861   -5.7320    0.0000 H   0  0  0  0  0  0  0  0  0  0  0  0
    6.4860   -3.7320    0.0000 H   0  0  0  0  0  0  0  0  0  0  0  0
    5.8660   -3.1121    0.0000 H   0  0  0  0  0  0  0  0  0  0  0  0
    5.2460   -3.7321    0.0000 H   0  0  0  0  0  0  0  0  0  0  0  0
    2.8660    5.3520    0.0000 H   0  0  0  0  0  0  0  0  0  0  0  0
    2.2460    4.7320    0.0000 H   0  0  0  0  0  0  0  0  0  0  0  0
    2.8660    4.1120    0.0000 H   0  0  0  0  0  0  0  0  0  0  0  0
    4.4860    5.7320    0.0000 H   0  0  0  0  0  0  0  0  0  0  0  0
    3.8660    6.3520    0.0000 H   0  0  0  0  0  0  0  0  0  0  0  0
    3.2460    5.7320    0.0000 H   0  0  0  0  0  0  0  0  0  0  0  0
    3.2460    3.7320    0.0000 H   0  0  0  0  0  0  0  0  0  0  0  0
    3.8660    3.1120    0.0000 H   0  0  0  0  0  0  0  0  0  0  0  0
    4.4860    3.7320    0.0000 H   0  0  0  0  0  0  0  0  0  0  0  0
    1.6900   -2.9631    0.0000 H   0  0  0  0  0  0  0  0  0  0  0  0
    1.4631   -3.8100    0.0000 H   0  0  0  0  0  0  0  0  0  0  0  0
    2.3100   -4.0369    0.0000 H   0  0  0  0  0  0  0  0  0  0  0  0
    2.9030   -1.8240    0.0000 H   0  0  0  0  0  0  0  0  0  0  0  0
    2.0560   -1.5970    0.0000 H   0  0  0  0  0  0  0  0  0  0  0  0
    1.8291   -2.4440    0.0000 H   0  0  0  0  0  0  0  0  0  0  0  0
    4.0420   -3.0369    0.0000 H   0  0  0  0  0  0  0  0  0  0  0  0
    4.2690   -2.1900    0.0000 H   0  0  0  0  0  0  0  0  0  0  0  0
    3.4220   -1.9631    0.0000 H   0  0  0  0  0  0  0  0  0  0  0  0
    8.0420    2.9631    0.0000 H   0  0  0  0  0  0  0  0  0  0  0  0
    8.2690    3.8100    0.0000 H   0  0  0  0  0  0  0  0  0  0  0  0
    7.4220    4.0369    0.0000 H   0  0  0  0  0  0  0  0  0  0  0  0
    6.8291    1.8240    0.0000 H   0  0  0  0  0  0  0  0  0  0  0  0
    7.6760    1.5970    0.0000 H   0  0  0  0  0  0  0  0  0  0  0  0
    7.9030    2.4440    0.0000 H   0  0  0  0  0  0  0  0  0  0  0  0
    5.6900    3.0369    0.0000 H   0  0  0  0  0  0  0  0  0  0  0  0
    5.4631    2.1900    0.0000 H   0  0  0  0  0  0  0  0  0  0  0  0
    6.3100    1.9631    0.0000 H   0  0  0  0  0  0  0  0  0  0  0  0
    2.3291   -6.1541    0.0000 H   0  0  0  0  0  0  0  0  0  0  0  0
    2.5560   -7.0010    0.0000 H   0  0  0  0  0  0  0  0  0  0  0  0
    3.4029   -6.7741    0.0000 H   0  0  0  0  0  0  0  0  0  0  0  0
    7.4030    6.1541    0.0000 H   0  0  0  0  0  0  0  0  0  0  0  0
    7.1760    7.0010    0.0000 H   0  0  0  0  0  0  0  0  0  0  0  0
    6.3291    6.7741    0.0000 H   0  0  0  0  0  0  0  0  0  0  0  0
  1  3  1  0  0  0  0
  1  4  1  0  0  0  0
  1  7  1  0  0  0  0
  2  5  1  0  0  0  0
  2  6  1  0  0  0  0
  2  8  1  0  0  0  0
  3 10  1  0  0  0  0
  4 11  1  0  0  0  0
  5 12  1  0  0  0  0
  6 13  1  0  0  0  0
  7 22  1  0  0  0  0
  8 23  1  0  0  0  0
  9 10  1  0  0  0  0
  9 11  1  0  0  0  0
  9 12  1  0  0  0  0
  9 13  1  0  0  0  0
 10 44  1  0  0  0  0
 10 45  1  0  0  0  0
 11 46  1  0  0  0  0
 11 47  1  0  0  0  0
 12 48  1  0  0  0  0
 12 49  1  0  0  0  0
 13 50  1  0  0  0  0
 13 51  1  0  0  0  0
 14 18  1  0  0  0  0
 14 28  1  0  0  0  0
 14 29  1  0  0  0  0
 14 30  1  0  0  0  0
 15 19  1  0  0  0  0
 15 31  1  0  0  0  0
 15 32  1  0  0  0  0
 15 33  1  0  0  0  0
 16 20  1  0  0  0  0
 16 34  1  0  0  0  0
 16 35  1  0  0  0  0
 16 36  1  0  0  0  0
 17 21  1  0  0  0  0
 17 37  1  0  0  0  0
 17 38  1  0  0  0  0
 17 39  1  0  0  0  0
 18 22  2  0  0  0  0
 18 24  1  0  0  0  0
 19 23  2  0  0  0  0
 19 25  1  0  0  0  0
 20 22  1  0  0  0  0
 20 26  2  0  0  0  0
 21 23  1  0  0  0  0
 21 27  2  0  0  0  0
 24 40  2  0  0  0  0
 24 52  1  0  0  0  0
 25 41  2  0  0  0  0
 25 53  1  0  0  0  0
 26 40  1  0  0  0  0
 26 54  1  0  0  0  0
 27 41  1  0  0  0  0
 27 55  1  0  0  0  0
 28 56  1  0  0  0  0
 28 57  1  0  0  0  0
 28 58  1  0  0  0  0
 29 59  1  0  0  0  0
 29 60  1  0  0  0  0
 29 61  1  0  0  0  0
 30 62  1  0  0  0  0
 30 63  1  0  0  0  0
 30 64  1  0  0  0  0
 31 65  1  0  0  0  0
 31 66  1  0  0  0  0
 31 67  1  0  0  0  0
 32 68  1  0  0  0  0
 32 69  1  0  0  0  0
 32 70  1  0  0  0  0
 33 71  1  0  0  0  0
 33 72  1  0  0  0  0
 33 73  1  0  0  0  0
 34 74  1  0  0  0  0
 34 75  1  0  0  0  0
 34 76  1  0  0  0  0
 35 77  1  0  0  0  0
 35 78  1  0  0  0  0
 35 79  1  0  0  0  0
 36 80  1  0  0  0  0
 36 81  1  0  0  0  0
 36 82  1  0  0  0  0
 37 83  1  0  0  0  0
 37 84  1  0  0  0  0
 37 85  1  0  0  0  0
 38 86  1  0  0  0  0
 38 87  1  0  0  0  0
 38 88  1  0  0  0  0
 39 89  1  0  0  0  0
 39 90  1  0  0  0  0
 39 91  1  0  0  0  0
 40 42  1  0  0  0  0
 41 43  1  0  0  0  0
 42 92  1  0  0  0  0
 42 93  1  0  0  0  0
 42 94  1  0  0  0  0
 43 95  1  0  0  0  0
 43 96  1  0  0  0  0
 43 97  1  0  0  0  0
M  END
> <PUBCHEM_COMPOUND_CID>
3601357

> <PUBCHEM_COMPOUND_CANONICALIZED>
1

> <PUBCHEM_CACTVS_COMPLEXITY>
774

> <PUBCHEM_CACTVS_HBOND_ACCEPTOR>
6

> <PUBCHEM_CACTVS_HBOND_DONOR>
0

> <PUBCHEM_CACTVS_ROTATABLE_BOND>
8

> <PUBCHEM_CACTVS_SUBSKEYS>
AAADcfB8OAMAAAAAAAAAAAAAAAAAAAAAAAA0aIEAAAAAAAABQAAAGgAAACAADgSgmAIyBoAAARCAAiBCAAACAAAgIAAAiAAECIgIJiKAERKAMAAlwBEIiAeAwOAPoAACAAAIAABAAAQAABAAAAAAAAAAAA==

> <PUBCHEM_IUPAC_OPENEYE_NAME>
3,9-bis(2,6-ditert-butyl-4-methyl-phenoxy)-2,4,8,10-tetraoxa-3,9-diphosphaspiro[5.5]undecane

> <PUBCHEM_IUPAC_CAS_NAME>
3,9-bis(2,6-ditert-butyl-4-methylphenoxy)-2,4,8,10-tetraoxa-3,9-diphosphaspiro[5.5]undecane

> <PUBCHEM_IUPAC_NAME_MARKUP>
3,9-bis(2,6-di<I>tert</I>-butyl-4-methylphenoxy)-2,4,8,10-tetraoxa-3,9-diphosphaspiro[5.5]undecane

> <PUBCHEM_IUPAC_NAME>
3,9-bis(2,6-ditert-butyl-4-methylphenoxy)-2,4,8,10-tetraoxa-3,9-diphosphaspiro[5.5]undecane

> <PUBCHEM_IUPAC_SYSTEMATIC_NAME>
3,9-bis(2,6-ditert-butyl-4-methyl-phenoxy)-2,4,8,10-tetraoxa-3,9-diphosphaspiro[5.5]undecane

> <PUBCHEM_IUPAC_TRADITIONAL_NAME>
3,9-bis(2,6-ditert-butyl-4-methyl-phenoxy)-2,4,8,10-tetraoxa-3,9-diphosphaspiro[5.5]undecane

> <PUBCHEM_IUPAC_INCHI>
InChI=1S/C35H54O6P2/c1-23-15-25(31(3,4)5)29(26(16-23)32(6,7)8)40-42-36-19-35(20-37-42)21-38-43(39-22-35)41-30-27(33(9,10)11)17-24(2)18-28(30)34(12,13)14/h15-18H,19-22H2,1-14H3

> <PUBCHEM_IUPAC_INCHIKEY>
SSADPHQCUURWSW-UHFFFAOYSA-N

> <PUBCHEM_XLOGP3_AA>
10.6

> <PUBCHEM_EXACT_MASS>
632.33956343

> <PUBCHEM_MOLECULAR_FORMULA>
C35H54O6P2

> <PUBCHEM_MOLECULAR_WEIGHT>
632.7

> <PUBCHEM_SMILES>
CC1=CC(=C(C(=C1)C(C)(C)C)OP2OCC3(CO2)COP(OC3)OC4=C(C=C(C=C4C(C)(C)C)C)C(C)(C)C)C(C)(C)C

> <PUBCHEM_OPENEYE_CAN_SMILES>
CC1=CC(=C(C(=C1)C(C)(C)C)OP2OCC3(CO2)COP(OC3)OC4=C(C=C(C=C4C(C)(C)C)C)C(C)(C)C)C(C)(C)C

> <PUBCHEM_OPENEYE_ISO_SMILES>
CC1=CC(=C(C(=C1)C(C)(C)C)OP2OCC3(CO2)COP(OC3)OC4=C(C=C(C=C4C(C)(C)C)C)C(C)(C)C)C(C)(C)C

> <PUBCHEM_CACTVS_TPSA>
55.4

> <PUBCHEM_MONOISOTOPIC_WEIGHT>
632.33956343

> <PUBCHEM_TOTAL_CHARGE>
0

> <PUBCHEM_HEAVY_ATOM_COUNT>
43

> <PUBCHEM_ATOM_DEF_STEREO_COUNT>
0

> <PUBCHEM_ATOM_UDEF_STEREO_COUNT>
0

> <PUBCHEM_BOND_DEF_STEREO_COUNT>
0

> <PUBCHEM_BOND_UDEF_STEREO_COUNT>
0

> <PUBCHEM_ISOTOPIC_ATOM_COUNT>
0

> <PUBCHEM_COMPONENT_COUNT>
1

> <PUBCHEM_CACTVS_TAUTO_COUNT>
-1

> <PUBCHEM_COORDINATE_TYPE>
1
5
255

> <PUBCHEM_BONDANNOTATIONS>
18  22  8
18  24  8
19  23  8
19  25  8
20  22  8
20  26  8
21  23  8
21  27  8
24  40  8
25  41  8
26  40  8
27  41  8

$$$$
