39179
  -OEChem-04042506022D

 72 72  0     0  0  0  0  0  0999 V2000
    9.7942   -3.0000    0.0000 O   0  0  0  0  0  0  0  0  0  0  0  0
   13.2583   -1.0000    0.0000 O   0  0  0  0  0  0  0  0  0  0  0  0
   10.6603   -1.5000    0.0000 O   0  0  0  0  0  0  0  0  0  0  0  0
   11.5263   -1.0000    0.0000 O   0  0  0  0  0  0  0  0  0  0  0  0
    4.5981   -3.0000    0.0000 C   0  0  0  0  0  0  0  0  0  0  0  0
    3.7320   -2.5000    0.0000 C   0  0  0  0  0  0  0  0  0  0  0  0
    5.4641   -2.5000    0.0000 C   0  0  0  0  0  0  0  0  0  0  0  0
    2.8660   -3.0000    0.0000 C   0  0  0  0  0  0  0  0  0  0  0  0
    6.3301   -3.0000    0.0000 C   0  0  0  0  0  0  0  0  0  0  0  0
    7.1962   -2.5000    0.0000 C   0  0  0  0  0  0  0  0  0  0  0  0
   14.9904    3.0000    0.0000 C   0  0  0  0  0  0  0  0  0  0  0  0
   15.8564    3.5000    0.0000 C   0  0  0  0  0  0  0  0  0  0  0  0
   14.9904    2.0000    0.0000 C   0  0  0  0  0  0  0  0  0  0  0  0
   14.1244    1.5000    0.0000 C   0  0  0  0  0  0  0  0  0  0  0  0
    8.0622   -3.0000    0.0000 C   0  0  0  0  0  0  0  0  0  0  0  0
    2.0000   -2.5000    0.0000 C   0  0  0  0  0  0  0  0  0  0  0  0
    2.8660   -4.0000    0.0000 C   0  0  0  0  0  0  0  0  0  0  0  0
   14.1244    0.5000    0.0000 C   0  0  0  0  0  0  0  0  0  0  0  0
   15.8564    4.5000    0.0000 C   0  0  0  0  0  0  0  0  0  0  0  0
   16.7224    3.0000    0.0000 C   0  0  0  0  0  0  0  0  0  0  0  0
    8.9282   -2.5000    0.0000 C   0  0  0  0  0  0  0  0  0  0  0  0
   13.2583    0.0000    0.0000 C   0  0  0  0  0  0  0  0  0  0  0  0
   10.6603   -2.5000    0.0000 C   0  0  0  0  0  0  0  0  0  0  0  0
   11.5263   -3.0000    0.0000 C   0  0  0  0  0  0  0  0  0  0  0  0
   12.3923   -2.5000    0.0000 C   0  0  0  0  0  0  0  0  0  0  0  0
   12.3923   -1.5000    0.0000 C   0  0  0  0  0  0  0  0  0  0  0  0
   11.5263   -4.0000    0.0000 C   0  0  0  0  0  0  0  0  0  0  0  0
   13.2583   -3.0000    0.0000 C   0  0  0  0  0  0  0  0  0  0  0  0
   12.3923   -4.5000    0.0000 C   0  0  0  0  0  0  0  0  0  0  0  0
   13.2583   -4.0000    0.0000 C   0  0  0  0  0  0  0  0  0  0  0  0
    4.1996   -3.4750    0.0000 H   0  0  0  0  0  0  0  0  0  0  0  0
    4.9966   -3.4750    0.0000 H   0  0  0  0  0  0  0  0  0  0  0  0
    4.1306   -2.0250    0.0000 H   0  0  0  0  0  0  0  0  0  0  0  0
    3.3335   -2.0250    0.0000 H   0  0  0  0  0  0  0  0  0  0  0  0
    5.8626   -2.0250    0.0000 H   0  0  0  0  0  0  0  0  0  0  0  0
    5.0656   -2.0250    0.0000 H   0  0  0  0  0  0  0  0  0  0  0  0
    2.8660   -2.3800    0.0000 H   0  0  0  0  0  0  0  0  0  0  0  0
    5.9316   -3.4750    0.0000 H   0  0  0  0  0  0  0  0  0  0  0  0
    6.7287   -3.4750    0.0000 H   0  0  0  0  0  0  0  0  0  0  0  0
    7.5947   -2.0250    0.0000 H   0  0  0  0  0  0  0  0  0  0  0  0
    6.7976   -2.0250    0.0000 H   0  0  0  0  0  0  0  0  0  0  0  0
   14.7783    3.5826    0.0000 H   0  0  0  0  0  0  0  0  0  0  0  0
   14.3798    2.8923    0.0000 H   0  0  0  0  0  0  0  0  0  0  0  0
   16.3933    3.8100    0.0000 H   0  0  0  0  0  0  0  0  0  0  0  0
   15.2024    1.4174    0.0000 H   0  0  0  0  0  0  0  0  0  0  0  0
   15.6010    2.1077    0.0000 H   0  0  0  0  0  0  0  0  0  0  0  0
   13.9123    2.0826    0.0000 H   0  0  0  0  0  0  0  0  0  0  0  0
   13.5138    1.3923    0.0000 H   0  0  0  0  0  0  0  0  0  0  0  0
    7.6636   -3.4750    0.0000 H   0  0  0  0  0  0  0  0  0  0  0  0
    8.4607   -3.4750    0.0000 H   0  0  0  0  0  0  0  0  0  0  0  0
    2.3100   -1.9631    0.0000 H   0  0  0  0  0  0  0  0  0  0  0  0
    1.4631   -2.1900    0.0000 H   0  0  0  0  0  0  0  0  0  0  0  0
    1.6900   -3.0369    0.0000 H   0  0  0  0  0  0  0  0  0  0  0  0
    2.2460   -4.0000    0.0000 H   0  0  0  0  0  0  0  0  0  0  0  0
    2.8660   -4.6200    0.0000 H   0  0  0  0  0  0  0  0  0  0  0  0
    3.4860   -4.0000    0.0000 H   0  0  0  0  0  0  0  0  0  0  0  0
   14.3364   -0.0826    0.0000 H   0  0  0  0  0  0  0  0  0  0  0  0
   14.7349    0.6077    0.0000 H   0  0  0  0  0  0  0  0  0  0  0  0
   16.4764    4.5000    0.0000 H   0  0  0  0  0  0  0  0  0  0  0  0
   15.8564    5.1200    0.0000 H   0  0  0  0  0  0  0  0  0  0  0  0
   15.2364    4.5000    0.0000 H   0  0  0  0  0  0  0  0  0  0  0  0
   16.4124    2.4631    0.0000 H   0  0  0  0  0  0  0  0  0  0  0  0
   17.2594    2.6900    0.0000 H   0  0  0  0  0  0  0  0  0  0  0  0
   17.0324    3.5369    0.0000 H   0  0  0  0  0  0  0  0  0  0  0  0
    9.3267   -2.0250    0.0000 H   0  0  0  0  0  0  0  0  0  0  0  0
    8.5297   -2.0250    0.0000 H   0  0  0  0  0  0  0  0  0  0  0  0
   13.0463    0.5826    0.0000 H   0  0  0  0  0  0  0  0  0  0  0  0
   12.6477   -0.1077    0.0000 H   0  0  0  0  0  0  0  0  0  0  0  0
   10.9893   -4.3100    0.0000 H   0  0  0  0  0  0  0  0  0  0  0  0
   13.7953   -2.6900    0.0000 H   0  0  0  0  0  0  0  0  0  0  0  0
   12.3923   -5.1200    0.0000 H   0  0  0  0  0  0  0  0  0  0  0  0
   13.7953   -4.3100    0.0000 H   0  0  0  0  0  0  0  0  0  0  0  0
  1 21  1  0  0  0  0
  1 23  1  0  0  0  0
  2 22  1  0  0  0  0
  2 26  1  0  0  0  0
  3 23  2  0  0  0  0
  4 26  2  0  0  0  0
  5  6  1  0  0  0  0
  5  7  1  0  0  0  0
  5 31  1  0  0  0  0
  5 32  1  0  0  0  0
  6  8  1  0  0  0  0
  6 33  1  0  0  0  0
  6 34  1  0  0  0  0
  7  9  1  0  0  0  0
  7 35  1  0  0  0  0
  7 36  1  0  0  0  0
  8 16  1  0  0  0  0
  8 17  1  0  0  0  0
  8 37  1  0  0  0  0
  9 10  1  0  0  0  0
  9 38  1  0  0  0  0
  9 39  1  0  0  0  0
 10 15  1  0  0  0  0
 10 40  1  0  0  0  0
 10 41  1  0  0  0  0
 11 12  1  0  0  0  0
 11 13  1  0  0  0  0
 11 42  1  0  0  0  0
 11 43  1  0  0  0  0
 12 19  1  0  0  0  0
 12 20  1  0  0  0  0
 12 44  1  0  0  0  0
 13 14  1  0  0  0  0
 13 45  1  0  0  0  0
 13 46  1  0  0  0  0
 14 18  1  0  0  0  0
 14 47  1  0  0  0  0
 14 48  1  0  0  0  0
 15 21  1  0  0  0  0
 15 49  1  0  0  0  0
 15 50  1  0  0  0  0
 16 51  1  0  0  0  0
 16 52  1  0  0  0  0
 16 53  1  0  0  0  0
 17 54  1  0  0  0  0
 17 55  1  0  0  0  0
 17 56  1  0  0  0  0
 18 22  1  0  0  0  0
 18 57  1  0  0  0  0
 18 58  1  0  0  0  0
 19 59  1  0  0  0  0
 19 60  1  0  0  0  0
 19 61  1  0  0  0  0
 20 62  1  0  0  0  0
 20 63  1  0  0  0  0
 20 64  1  0  0  0  0
 21 65  1  0  0  0  0
 21 66  1  0  0  0  0
 22 67  1  0  0  0  0
 22 68  1  0  0  0  0
 23 24  1  0  0  0  0
 24 25  1  0  0  0  0
 24 27  2  0  0  0  0
 25 26  1  0  0  0  0
 25 28  2  0  0  0  0
 27 29  1  0  0  0  0
 27 69  1  0  0  0  0
 28 30  1  0  0  0  0
 28 70  1  0  0  0  0
 29 30  2  0  0  0  0
 29 71  1  0  0  0  0
 30 72  1  0  0  0  0
M  END
> <PUBCHEM_COMPOUND_CID>
39179

> <PUBCHEM_COMPOUND_CANONICALIZED>
1

> <PUBCHEM_CACTVS_COMPLEXITY>
458

> <PUBCHEM_CACTVS_HBOND_ACCEPTOR>
4

> <PUBCHEM_CACTVS_HBOND_DONOR>
0

> <PUBCHEM_CACTVS_ROTATABLE_BOND>
18

> <PUBCHEM_CACTVS_SUBSKEYS>
AAADcfB4OAAAAAAAAAAAAAAAAAAAAAAAAAAwAAAAAAAAAAABAAAAGgAAAAAADQCgmAIyCIAABACIAiDSCAACAAAkAAAIiAEACMgIJjKANRiCMQAkwAEIqYfLyOCOgAAAAAAQAAAAAAAAACAAAAAAAAAAAA==

> <PUBCHEM_IUPAC_OPENEYE_NAME>
O2-(6-methylheptyl) O1-(8-methylnonyl) benzene-1,2-dicarboxylate

> <PUBCHEM_IUPAC_CAS_NAME>
benzene-1,2-dicarboxylic acid O2-(6-methylheptyl) ester O1-(8-methylnonyl) ester

> <PUBCHEM_IUPAC_NAME_MARKUP>
2-<I>O</I>-(6-methylheptyl) 1-<I>O</I>-(8-methylnonyl) benzene-1,2-dicarboxylate

> <PUBCHEM_IUPAC_NAME>
2-O-(6-methylheptyl) 1-O-(8-methylnonyl) benzene-1,2-dicarboxylate

> <PUBCHEM_IUPAC_SYSTEMATIC_NAME>
O2-(6-methylheptyl) O1-(8-methylnonyl) benzene-1,2-dicarboxylate

> <PUBCHEM_IUPAC_TRADITIONAL_NAME>
benzene-1,2-dicarboxylic acid O2-(6-methylheptyl) ester O1-(8-methylnonyl) ester

> <PUBCHEM_IUPAC_INCHI>
InChI=1S/C26H42O4/c1-21(2)15-9-6-5-7-13-19-29-25(27)23-17-11-12-18-24(23)26(28)30-20-14-8-10-16-22(3)4/h11-12,17-18,21-22H,5-10,13-16,19-20H2,1-4H3

> <PUBCHEM_IUPAC_INCHIKEY>
DISOBDRLYQMQDY-UHFFFAOYSA-N

> <PUBCHEM_XLOGP3>
9.6

> <PUBCHEM_EXACT_MASS>
418.30830982

> <PUBCHEM_MOLECULAR_FORMULA>
C26H42O4

> <PUBCHEM_MOLECULAR_WEIGHT>
418.6

> <PUBCHEM_SMILES>
CC(C)CCCCCCCOC(=O)C1=CC=CC=C1C(=O)OCCCCCC(C)C

> <PUBCHEM_OPENEYE_CAN_SMILES>
CC(C)CCCCCCCOC(=O)C1=CC=CC=C1C(=O)OCCCCCC(C)C

> <PUBCHEM_OPENEYE_ISO_SMILES>
CC(C)CCCCCCCOC(=O)C1=CC=CC=C1C(=O)OCCCCCC(C)C

> <PUBCHEM_CACTVS_TPSA>
52.6

> <PUBCHEM_MONOISOTOPIC_WEIGHT>
418.30830982

> <PUBCHEM_TOTAL_CHARGE>
0

> <PUBCHEM_HEAVY_ATOM_COUNT>
30

> <PUBCHEM_ATOM_DEF_STEREO_COUNT>
0

> <PUBCHEM_ATOM_UDEF_STEREO_COUNT>
0

> <PUBCHEM_BOND_DEF_STEREO_COUNT>
0

> <PUBCHEM_BOND_UDEF_STEREO_COUNT>
0

> <PUBCHEM_ISOTOPIC_ATOM_COUNT>
0

> <PUBCHEM_COMPONENT_COUNT>
1

> <PUBCHEM_CACTVS_TAUTO_COUNT>
-1

> <PUBCHEM_COORDINATE_TYPE>
1
5
255

> <PUBCHEM_BONDANNOTATIONS>
24  25  8
24  27  8
25  28  8
27  29  8
28  30  8
29  30  8

$$$$
