43525
  -OEChem-04042512362D

 43 45  0     1  0  0  0  0  0999 V2000
   13.1901   -0.8630    0.0000 O   0  0  0  0  0  0  0  0  0  0  0  0
    7.1962   -1.3630    0.0000 O   0  0  0  0  0  0  0  0  0  0  0  0
    7.1962    1.6370    0.0000 O   0  0  0  0  0  0  0  0  0  0  0  0
    2.0000    1.6370    0.0000 O   0  0  0  0  0  0  0  0  0  0  0  0
    3.7320    1.6370    0.0000 O   0  0  0  0  0  0  0  0  0  0  0  0
   11.6065   -0.0582    0.0000 N   0  0  0  0  0  0  0  0  0  0  0  0
   11.6065   -1.6677    0.0000 N   0  0  0  0  0  0  0  0  0  0  0  0
    8.0622    0.1370    0.0000 N   0  0  0  0  0  0  0  0  0  0  0  0
    5.4641   -0.3630    0.0000 N   0  0  0  0  0  0  0  0  0  0  0  0
    4.5981    0.1370    0.0000 N   0  0  0  0  0  0  0  0  0  0  0  0
   10.6603   -0.3630    0.0000 C   0  0  0  0  0  0  0  0  0  0  0  0
   10.6603   -1.3630    0.0000 C   0  0  0  0  0  0  0  0  0  0  0  0
    8.9282   -0.3630    0.0000 C   0  0  0  0  0  0  0  0  0  0  0  0
    9.7942    0.1370    0.0000 C   0  0  0  0  0  0  0  0  0  0  0  0
    9.7942   -1.8630    0.0000 C   0  0  0  0  0  0  0  0  0  0  0  0
    8.9282   -1.3630    0.0000 C   0  0  0  0  0  0  0  0  0  0  0  0
   12.1901   -0.8630    0.0000 C   0  0  0  0  0  0  0  0  0  0  0  0
    6.3301    0.1370    0.0000 C   0  0  3  0  0  0  0  0  0  0  0  0
    7.1962   -0.3630    0.0000 C   0  0  0  0  0  0  0  0  0  0  0  0
    6.3301    1.1370    0.0000 C   0  0  0  0  0  0  0  0  0  0  0  0
    3.7320   -0.3630    0.0000 C   0  0  0  0  0  0  0  0  0  0  0  0
    5.4641    1.6370    0.0000 C   0  0  0  0  0  0  0  0  0  0  0  0
    2.8660    0.1370    0.0000 C   0  0  0  0  0  0  0  0  0  0  0  0
    3.7320   -1.3630    0.0000 C   0  0  0  0  0  0  0  0  0  0  0  0
    2.0000   -0.3630    0.0000 C   0  0  0  0  0  0  0  0  0  0  0  0
    2.8660   -1.8630    0.0000 C   0  0  0  0  0  0  0  0  0  0  0  0
    2.0000   -1.3630    0.0000 C   0  0  0  0  0  0  0  0  0  0  0  0
    2.8660    1.1370    0.0000 C   0  0  0  0  0  0  0  0  0  0  0  0
    9.7942    0.7570    0.0000 H   0  0  0  0  0  0  0  0  0  0  0  0
    9.7942   -2.4830    0.0000 H   0  0  0  0  0  0  0  0  0  0  0  0
    8.3913   -1.6730    0.0000 H   0  0  0  0  0  0  0  0  0  0  0  0
   11.7991    0.5311    0.0000 H   0  0  0  0  0  0  0  0  0  0  0  0
   11.7991   -2.2570    0.0000 H   0  0  0  0  0  0  0  0  0  0  0  0
    8.0622    0.7570    0.0000 H   0  0  0  0  0  0  0  0  0  0  0  0
    5.7932    0.4470    0.0000 H   0  0  0  0  0  0  0  0  0  0  0  0
    5.7741    2.1740    0.0000 H   0  0  0  0  0  0  0  0  0  0  0  0
    4.9272    1.9470    0.0000 H   0  0  0  0  0  0  0  0  0  0  0  0
    5.1541    1.1001    0.0000 H   0  0  0  0  0  0  0  0  0  0  0  0
    4.2690   -1.6730    0.0000 H   0  0  0  0  0  0  0  0  0  0  0  0
    1.4631   -0.0530    0.0000 H   0  0  0  0  0  0  0  0  0  0  0  0
    2.8660   -2.4830    0.0000 H   0  0  0  0  0  0  0  0  0  0  0  0
    1.4631   -1.6730    0.0000 H   0  0  0  0  0  0  0  0  0  0  0  0
    2.0000    2.2570    0.0000 H   0  0  0  0  0  0  0  0  0  0  0  0
  1 17  2  0  0  0  0
  2 19  2  0  0  0  0
  3 20  2  0  0  0  0
  4 28  1  0  0  0  0
  4 43  1  0  0  0  0
  5 28  2  0  0  0  0
  6 11  1  0  0  0  0
  6 17  1  0  0  0  0
  6 32  1  0  0  0  0
  7 12  1  0  0  0  0
  7 17  1  0  0  0  0
  7 33  1  0  0  0  0
  8 13  1  0  0  0  0
  8 19  1  0  0  0  0
  8 34  1  0  0  0  0
  9 10  2  0  0  0  0
  9 18  1  0  0  0  0
 10 21  1  0  0  0  0
 11 12  2  0  0  0  0
 11 14  1  0  0  0  0
 12 15  1  0  0  0  0
 13 14  2  0  0  0  0
 13 16  1  0  0  0  0
 14 29  1  0  0  0  0
 15 16  2  0  0  0  0
 15 30  1  0  0  0  0
 16 31  1  0  0  0  0
 18 19  1  0  0  0  0
 18 20  1  0  0  0  0
 18 35  1  0  0  0  0
 20 22  1  0  0  0  0
 21 23  1  0  0  0  0
 21 24  2  0  0  0  0
 22 36  1  0  0  0  0
 22 37  1  0  0  0  0
 22 38  1  0  0  0  0
 23 25  2  0  0  0  0
 23 28  1  0  0  0  0
 24 26  1  0  0  0  0
 24 39  1  0  0  0  0
 25 27  1  0  0  0  0
 25 40  1  0  0  0  0
 26 27  2  0  0  0  0
 26 41  1  0  0  0  0
 27 42  1  0  0  0  0
M  END
> <PUBCHEM_COMPOUND_CID>
43525

> <PUBCHEM_COMPOUND_CANONICALIZED>
1

> <PUBCHEM_CACTVS_COMPLEXITY>
681

> <PUBCHEM_CACTVS_HBOND_ACCEPTOR>
7

> <PUBCHEM_CACTVS_HBOND_DONOR>
4

> <PUBCHEM_CACTVS_ROTATABLE_BOND>
6

> <PUBCHEM_CACTVS_SUBSKEYS>
AAADccB7uAAAAAAAAAAAAAAAAAAAAWAAAAAwYAAAAAAAAFgBQAAAHgAYCAAADCzBmAQzyILAAgCKAqXSWACCAAAlAgAIiAGAfMiIZjrI1dGUcYhu1API2eeYyCCOAACAAAQCACAAAQAACAQAQAAAAAAAAA==

> <PUBCHEM_IUPAC_OPENEYE_NAME>
2-[2-oxo-1-[(2-oxo-1,3-dihydrobenzimidazol-5-yl)carbamoyl]propyl]azobenzoic acid

> <PUBCHEM_IUPAC_CAS_NAME>
2-[1,3-dioxo-1-[(2-oxo-1,3-dihydrobenzimidazol-5-yl)amino]butan-2-yl]azobenzoic acid

> <PUBCHEM_IUPAC_NAME_MARKUP>
2-[[1,3-dioxo-1-[(2-oxo-1,3-dihydrobenzimidazol-5-yl)amino]butan-2-yl]diazenyl]benzoic acid

> <PUBCHEM_IUPAC_NAME>
2-[[1,3-dioxo-1-[(2-oxo-1,3-dihydrobenzimidazol-5-yl)amino]butan-2-yl]diazenyl]benzoic acid

> <PUBCHEM_IUPAC_SYSTEMATIC_NAME>
2-[[1,3-bis(oxidanylidene)-1-[(2-oxidanylidene-1,3-dihydrobenzimidazol-5-yl)amino]butan-2-yl]diazenyl]benzoic acid

> <PUBCHEM_IUPAC_TRADITIONAL_NAME>
2-[2-keto-1-[(2-keto-1,3-dihydrobenzimidazol-5-yl)carbamoyl]propyl]azobenzoic acid

> <PUBCHEM_IUPAC_INCHI>
InChI=1S/C18H15N5O5/c1-9(24)15(23-22-12-5-3-2-4-11(12)17(26)27)16(25)19-10-6-7-13-14(8-10)21-18(28)20-13/h2-8,15H,1H3,(H,19,25)(H,26,27)(H2,20,21,28)

> <PUBCHEM_IUPAC_INCHIKEY>
YMFWVWDPPIWORA-UHFFFAOYSA-N

> <PUBCHEM_XLOGP3_AA>
1.7

> <PUBCHEM_EXACT_MASS>
381.10731860

> <PUBCHEM_MOLECULAR_FORMULA>
C18H15N5O5

> <PUBCHEM_MOLECULAR_WEIGHT>
381.3

> <PUBCHEM_SMILES>
CC(=O)C(C(=O)NC1=CC2=C(C=C1)NC(=O)N2)N=NC3=CC=CC=C3C(=O)O

> <PUBCHEM_OPENEYE_CAN_SMILES>
CC(=O)C(C(=O)NC1=CC2=C(C=C1)NC(=O)N2)N=NC3=CC=CC=C3C(=O)O

> <PUBCHEM_OPENEYE_ISO_SMILES>
CC(=O)C(C(=O)NC1=CC2=C(C=C1)NC(=O)N2)N=NC3=CC=CC=C3C(=O)O

> <PUBCHEM_CACTVS_TPSA>
149

> <PUBCHEM_MONOISOTOPIC_WEIGHT>
381.10731860

> <PUBCHEM_TOTAL_CHARGE>
0

> <PUBCHEM_HEAVY_ATOM_COUNT>
28

> <PUBCHEM_ATOM_DEF_STEREO_COUNT>
0

> <PUBCHEM_ATOM_UDEF_STEREO_COUNT>
1

> <PUBCHEM_BOND_DEF_STEREO_COUNT>
0

> <PUBCHEM_BOND_UDEF_STEREO_COUNT>
0

> <PUBCHEM_ISOTOPIC_ATOM_COUNT>
0

> <PUBCHEM_COMPONENT_COUNT>
1

> <PUBCHEM_CACTVS_TAUTO_COUNT>
-1

> <PUBCHEM_COORDINATE_TYPE>
1
5
255

> <PUBCHEM_BONDANNOTATIONS>
11  12  8
11  14  8
12  15  8
13  14  8
13  16  8
15  16  8
18  20  3
21  23  8
21  24  8
23  25  8
24  26  8
25  27  8
26  27  8
6  11  8
6  17  8
7  12  8
7  17  8

$$$$
