44135711
  -OEChem-04042512452D

 58 57  0     1  0  0  0  0  0999 V2000
    4.5981    3.8840    0.0000 S   0  0  0  0  0  0  0  0  0  0  0  0
    6.3301   -4.1160    0.0000 S   0  0  0  0  0  0  0  0  0  0  0  0
    7.1962   -5.6160    0.0000 Na  0  3  0  0  0  0  0  0  0  0  0  0
    4.5981    5.6160    0.0000 Na  0  3  0  0  0  0  0  0  0  0  0  0
    4.5981    1.8840    0.0000 O   0  0  0  0  0  0  0  0  0  0  0  0
    2.8660    0.8840    0.0000 O   0  0  0  0  0  0  0  0  0  0  0  0
    6.3301    3.8840    0.0000 O   0  0  0  0  0  0  0  0  0  0  0  0
    5.0981    4.7500    0.0000 O   0  5  0  0  0  0  0  0  0  0  0  0
    3.7320    4.3840    0.0000 O   0  0  0  0  0  0  0  0  0  0  0  0
    4.0981    3.0180    0.0000 O   0  0  0  0  0  0  0  0  0  0  0  0
    8.0622    4.8840    0.0000 O   0  0  0  0  0  0  0  0  0  0  0  0
    7.1962   -4.6160    0.0000 O   0  5  0  0  0  0  0  0  0  0  0  0
    5.8301   -4.9820    0.0000 O   0  0  0  0  0  0  0  0  0  0  0  0
    6.8301   -3.2500    0.0000 O   0  0  0  0  0  0  0  0  0  0  0  0
    5.4641    2.3840    0.0000 C   0  0  3  0  0  0  0  0  0  0  0  0
    6.3301    1.8840    0.0000 C   0  0  0  0  0  0  0  0  0  0  0  0
    5.4641    3.3840    0.0000 C   0  0  0  0  0  0  0  0  0  0  0  0
    7.1962    2.3840    0.0000 C   0  0  0  0  0  0  0  0  0  0  0  0
    4.5981   -2.1160    0.0000 C   0  0  0  0  0  0  0  0  0  0  0  0
    4.5981   -1.1160    0.0000 C   0  0  0  0  0  0  0  0  0  0  0  0
    4.5981    0.8840    0.0000 C   0  0  0  0  0  0  0  0  0  0  0  0
    5.4641   -2.6160    0.0000 C   0  0  0  0  0  0  0  0  0  0  0  0
    3.7320    0.3840    0.0000 C   0  0  0  0  0  0  0  0  0  0  0  0
    3.7320   -0.6160    0.0000 C   0  0  0  0  0  0  0  0  0  0  0  0
    5.4641   -3.6160    0.0000 C   0  0  0  0  0  0  0  0  0  0  0  0
    7.1962    3.3840    0.0000 C   0  0  0  0  0  0  0  0  0  0  0  0
    5.4641   -0.6160    0.0000 C   0  0  0  0  0  0  0  0  0  0  0  0
    5.4641    0.3840    0.0000 C   0  0  0  0  0  0  0  0  0  0  0  0
    8.0622    1.8840    0.0000 C   0  0  0  0  0  0  0  0  0  0  0  0
    8.0622    3.8840    0.0000 C   0  0  0  0  0  0  0  0  0  0  0  0
    8.9282    2.3840    0.0000 C   0  0  0  0  0  0  0  0  0  0  0  0
    8.9282    3.3840    0.0000 C   0  0  0  0  0  0  0  0  0  0  0  0
    2.0000    0.3840    0.0000 C   0  0  0  0  0  0  0  0  0  0  0  0
    8.9282    5.3840    0.0000 C   0  0  0  0  0  0  0  0  0  0  0  0
    5.4641    1.7640    0.0000 H   0  0  0  0  0  0  0  0  0  0  0  0
    5.9316    1.4090    0.0000 H   0  0  0  0  0  0  0  0  0  0  0  0
    6.7287    1.4090    0.0000 H   0  0  0  0  0  0  0  0  0  0  0  0
    6.0747    3.2763    0.0000 H   0  0  0  0  0  0  0  0  0  0  0  0
    5.6762    3.9666    0.0000 H   0  0  0  0  0  0  0  0  0  0  0  0
    3.9875   -2.0084    0.0000 H   0  0  0  0  0  0  0  0  0  0  0  0
    4.3860   -2.6986    0.0000 H   0  0  0  0  0  0  0  0  0  0  0  0
    6.0747   -2.7237    0.0000 H   0  0  0  0  0  0  0  0  0  0  0  0
    5.6762   -2.0334    0.0000 H   0  0  0  0  0  0  0  0  0  0  0  0
    3.1951   -0.9260    0.0000 H   0  0  0  0  0  0  0  0  0  0  0  0
    4.8535   -3.5084    0.0000 H   0  0  0  0  0  0  0  0  0  0  0  0
    5.2520   -4.1986    0.0000 H   0  0  0  0  0  0  0  0  0  0  0  0
    6.0010   -0.9260    0.0000 H   0  0  0  0  0  0  0  0  0  0  0  0
    6.0010    0.6940    0.0000 H   0  0  0  0  0  0  0  0  0  0  0  0
    8.0622    1.2640    0.0000 H   0  0  0  0  0  0  0  0  0  0  0  0
    9.4651    2.0740    0.0000 H   0  0  0  0  0  0  0  0  0  0  0  0
    9.4651    3.6940    0.0000 H   0  0  0  0  0  0  0  0  0  0  0  0
    6.3301    4.5040    0.0000 H   0  0  0  0  0  0  0  0  0  0  0  0
    1.6900    0.9209    0.0000 H   0  0  0  0  0  0  0  0  0  0  0  0
    1.4631    0.0740    0.0000 H   0  0  0  0  0  0  0  0  0  0  0  0
    2.3100   -0.1530    0.0000 H   0  0  0  0  0  0  0  0  0  0  0  0
    9.2382    4.8470    0.0000 H   0  0  0  0  0  0  0  0  0  0  0  0
    9.4651    5.6940    0.0000 H   0  0  0  0  0  0  0  0  0  0  0  0
    8.6182    5.9209    0.0000 H   0  0  0  0  0  0  0  0  0  0  0  0
  1  8  1  0  0  0  0
  1  9  2  0  0  0  0
  1 10  2  0  0  0  0
  1 17  1  0  0  0  0
  2 12  1  0  0  0  0
  2 13  2  0  0  0  0
  2 14  2  0  0  0  0
  2 25  1  0  0  0  0
  5 15  1  0  0  0  0
  5 21  1  0  0  0  0
  6 23  1  0  0  0  0
  6 33  1  0  0  0  0
  7 26  1  0  0  0  0
  7 52  1  0  0  0  0
 11 30  1  0  0  0  0
 11 34  1  0  0  0  0
 15 16  1  0  0  0  0
 15 17  1  0  0  0  0
 15 35  1  0  0  0  0
 16 18  1  0  0  0  0
 16 36  1  0  0  0  0
 16 37  1  0  0  0  0
 17 38  1  0  0  0  0
 17 39  1  0  0  0  0
 18 26  2  0  0  0  0
 18 29  1  0  0  0  0
 19 20  1  0  0  0  0
 19 22  1  0  0  0  0
 19 40  1  0  0  0  0
 19 41  1  0  0  0  0
 20 24  2  0  0  0  0
 20 27  1  0  0  0  0
 21 23  2  0  0  0  0
 21 28  1  0  0  0  0
 22 25  1  0  0  0  0
 22 42  1  0  0  0  0
 22 43  1  0  0  0  0
 23 24  1  0  0  0  0
 24 44  1  0  0  0  0
 25 45  1  0  0  0  0
 25 46  1  0  0  0  0
 26 30  1  0  0  0  0
 27 28  2  0  0  0  0
 27 47  1  0  0  0  0
 28 48  1  0  0  0  0
 29 31  2  0  0  0  0
 29 49  1  0  0  0  0
 30 32  2  0  0  0  0
 31 32  1  0  0  0  0
 31 50  1  0  0  0  0
 32 51  1  0  0  0  0
 33 53  1  0  0  0  0
 33 54  1  0  0  0  0
 33 55  1  0  0  0  0
 34 56  1  0  0  0  0
 34 57  1  0  0  0  0
 34 58  1  0  0  0  0
M  CHG  4   3   1   4   1   8  -1  12  -1
M  END
> <PUBCHEM_COMPOUND_CID>
44135711

> <PUBCHEM_COMPOUND_CANONICALIZED>
1

> <PUBCHEM_CACTVS_COMPLEXITY>
732

> <PUBCHEM_CACTVS_HBOND_ACCEPTOR>
10

> <PUBCHEM_CACTVS_HBOND_DONOR>
1

> <PUBCHEM_CACTVS_ROTATABLE_BOND>
10

> <PUBCHEM_CACTVS_SUBSKEYS>
AAADceB4PDBgAAAAAAAAAAAAAAAAAAAAAAAwYAAAAAAAAAABQAAAGgQACAAADBSk2AKyBoAABgKAAiBCAHBCCAAgIAAIiAAGiIgNJiKGMRqCeCOkwBELuAfA4LwOIAABAAAIQABAAAIAABCAAAAAAAAAAA==

> <PUBCHEM_IUPAC_OPENEYE_NAME>
disodium;3-(2-hydroxy-3-methoxy-phenyl)-2-[2-methoxy-4-(3-sulfonatopropyl)phenoxy]propane-1-sulfonate

> <PUBCHEM_IUPAC_CAS_NAME>
disodium;3-(2-hydroxy-3-methoxyphenyl)-2-[2-methoxy-4-(3-sulfonatopropyl)phenoxy]-1-propanesulfonate

> <PUBCHEM_IUPAC_NAME_MARKUP>
disodium;3-(2-hydroxy-3-methoxyphenyl)-2-[2-methoxy-4-(3-sulfonatopropyl)phenoxy]propane-1-sulfonate

> <PUBCHEM_IUPAC_NAME>
disodium;3-(2-hydroxy-3-methoxyphenyl)-2-[2-methoxy-4-(3-sulfonatopropyl)phenoxy]propane-1-sulfonate

> <PUBCHEM_IUPAC_SYSTEMATIC_NAME>
disodium;3-(3-methoxy-2-oxidanyl-phenyl)-2-[2-methoxy-4-(3-sulfonatopropyl)phenoxy]propane-1-sulfonate

> <PUBCHEM_IUPAC_TRADITIONAL_NAME>
disodium;3-(2-hydroxy-3-methoxy-phenyl)-2-[2-methoxy-4-(3-sulfonatopropyl)phenoxy]propane-1-sulfonate

> <PUBCHEM_IUPAC_INCHI>
InChI=1S/C20H26O10S2.2Na/c1-28-18-7-3-6-15(20(18)21)12-16(13-32(25,26)27)30-17-9-8-14(11-19(17)29-2)5-4-10-31(22,23)24;;/h3,6-9,11,16,21H,4-5,10,12-13H2,1-2H3,(H,22,23,24)(H,25,26,27);;/q;2*+1/p-2

> <PUBCHEM_IUPAC_INCHIKEY>
YDEXUEFDPVHGHE-UHFFFAOYSA-L

> <PUBCHEM_EXACT_MASS>
534.06062787

> <PUBCHEM_MOLECULAR_FORMULA>
C20H24Na2O10S2

> <PUBCHEM_MOLECULAR_WEIGHT>
534.5

> <PUBCHEM_SMILES>
COC1=CC=CC(=C1O)CC(CS(=O)(=O)[O-])OC2=C(C=C(C=C2)CCCS(=O)(=O)[O-])OC.[Na+].[Na+]

> <PUBCHEM_OPENEYE_CAN_SMILES>
COC1=CC=CC(=C1O)CC(CS(=O)(=O)[O-])OC2=C(C=C(C=C2)CCCS(=O)(=O)[O-])OC.[Na+].[Na+]

> <PUBCHEM_OPENEYE_ISO_SMILES>
COC1=CC=CC(=C1O)CC(CS(=O)(=O)[O-])OC2=C(C=C(C=C2)CCCS(=O)(=O)[O-])OC.[Na+].[Na+]

> <PUBCHEM_CACTVS_TPSA>
179

> <PUBCHEM_MONOISOTOPIC_WEIGHT>
534.06062787

> <PUBCHEM_TOTAL_CHARGE>
0

> <PUBCHEM_HEAVY_ATOM_COUNT>
34

> <PUBCHEM_ATOM_DEF_STEREO_COUNT>
0

> <PUBCHEM_ATOM_UDEF_STEREO_COUNT>
1

> <PUBCHEM_BOND_DEF_STEREO_COUNT>
0

> <PUBCHEM_BOND_UDEF_STEREO_COUNT>
0

> <PUBCHEM_ISOTOPIC_ATOM_COUNT>
0

> <PUBCHEM_COMPONENT_COUNT>
3

> <PUBCHEM_CACTVS_TAUTO_COUNT>
-1

> <PUBCHEM_COORDINATE_TYPE>
1
5
255

> <PUBCHEM_BONDANNOTATIONS>
15  16  3
18  26  8
18  29  8
20  24  8
20  27  8
21  23  8
21  28  8
23  24  8
26  30  8
27  28  8
29  31  8
30  32  8
31  32  8

$$$$
