44146763
  -OEChem-04042506022D

 75 75  0     0  0  0  0  0  0999 V2000
    9.7942   -3.2500    0.0000 O   0  0  0  0  0  0  0  0  0  0  0  0
   13.2583   -1.2500    0.0000 O   0  0  0  0  0  0  0  0  0  0  0  0
   10.6603   -1.7500    0.0000 O   0  0  0  0  0  0  0  0  0  0  0  0
   11.5263   -1.2500    0.0000 O   0  0  0  0  0  0  0  0  0  0  0  0
    4.5981   -3.2500    0.0000 C   0  0  0  0  0  0  0  0  0  0  0  0
    3.7320   -2.7500    0.0000 C   0  0  0  0  0  0  0  0  0  0  0  0
    5.4641   -2.7500    0.0000 C   0  0  0  0  0  0  0  0  0  0  0  0
    2.8660   -3.2500    0.0000 C   0  0  0  0  0  0  0  0  0  0  0  0
    6.3301   -3.2500    0.0000 C   0  0  0  0  0  0  0  0  0  0  0  0
   15.8564    3.2500    0.0000 C   0  0  0  0  0  0  0  0  0  0  0  0
   14.9904    2.7500    0.0000 C   0  0  0  0  0  0  0  0  0  0  0  0
   15.8564    4.2500    0.0000 C   0  0  0  0  0  0  0  0  0  0  0  0
   14.9904    1.7500    0.0000 C   0  0  0  0  0  0  0  0  0  0  0  0
    7.1962   -2.7500    0.0000 C   0  0  0  0  0  0  0  0  0  0  0  0
   14.1244    1.2500    0.0000 C   0  0  0  0  0  0  0  0  0  0  0  0
    8.0622   -3.2500    0.0000 C   0  0  0  0  0  0  0  0  0  0  0  0
   14.1244    0.2500    0.0000 C   0  0  0  0  0  0  0  0  0  0  0  0
    2.0000   -2.7500    0.0000 C   0  0  0  0  0  0  0  0  0  0  0  0
    2.8660   -4.2500    0.0000 C   0  0  0  0  0  0  0  0  0  0  0  0
   16.7224    4.7500    0.0000 C   0  0  0  0  0  0  0  0  0  0  0  0
   14.9904    4.7500    0.0000 C   0  0  0  0  0  0  0  0  0  0  0  0
    8.9282   -2.7500    0.0000 C   0  0  0  0  0  0  0  0  0  0  0  0
   13.2583   -0.2500    0.0000 C   0  0  0  0  0  0  0  0  0  0  0  0
   10.6603   -2.7500    0.0000 C   0  0  0  0  0  0  0  0  0  0  0  0
   12.3923   -1.7500    0.0000 C   0  0  0  0  0  0  0  0  0  0  0  0
   11.5263   -3.2500    0.0000 C   0  0  0  0  0  0  0  0  0  0  0  0
   12.3923   -2.7500    0.0000 C   0  0  0  0  0  0  0  0  0  0  0  0
   11.5263   -4.2500    0.0000 C   0  0  0  0  0  0  0  0  0  0  0  0
   13.2583   -3.2500    0.0000 C   0  0  0  0  0  0  0  0  0  0  0  0
   12.3923   -4.7500    0.0000 C   0  0  0  0  0  0  0  0  0  0  0  0
   13.2583   -4.2500    0.0000 C   0  0  0  0  0  0  0  0  0  0  0  0
    4.1996   -3.7250    0.0000 H   0  0  0  0  0  0  0  0  0  0  0  0
    4.9966   -3.7250    0.0000 H   0  0  0  0  0  0  0  0  0  0  0  0
    4.1306   -2.2750    0.0000 H   0  0  0  0  0  0  0  0  0  0  0  0
    3.3335   -2.2750    0.0000 H   0  0  0  0  0  0  0  0  0  0  0  0
    5.8626   -2.2750    0.0000 H   0  0  0  0  0  0  0  0  0  0  0  0
    5.0656   -2.2750    0.0000 H   0  0  0  0  0  0  0  0  0  0  0  0
    2.8660   -2.6300    0.0000 H   0  0  0  0  0  0  0  0  0  0  0  0
    5.9316   -3.7250    0.0000 H   0  0  0  0  0  0  0  0  0  0  0  0
    6.7287   -3.7250    0.0000 H   0  0  0  0  0  0  0  0  0  0  0  0
   16.0685    2.6674    0.0000 H   0  0  0  0  0  0  0  0  0  0  0  0
   16.4670    3.3577    0.0000 H   0  0  0  0  0  0  0  0  0  0  0  0
   14.7783    3.3326    0.0000 H   0  0  0  0  0  0  0  0  0  0  0  0
   14.3798    2.6423    0.0000 H   0  0  0  0  0  0  0  0  0  0  0  0
   16.3933    3.9400    0.0000 H   0  0  0  0  0  0  0  0  0  0  0  0
   15.2024    1.1674    0.0000 H   0  0  0  0  0  0  0  0  0  0  0  0
   15.6010    1.8577    0.0000 H   0  0  0  0  0  0  0  0  0  0  0  0
    7.5947   -2.2750    0.0000 H   0  0  0  0  0  0  0  0  0  0  0  0
    6.7976   -2.2750    0.0000 H   0  0  0  0  0  0  0  0  0  0  0  0
   13.9123    1.8326    0.0000 H   0  0  0  0  0  0  0  0  0  0  0  0
   13.5138    1.1423    0.0000 H   0  0  0  0  0  0  0  0  0  0  0  0
    7.6636   -3.7250    0.0000 H   0  0  0  0  0  0  0  0  0  0  0  0
    8.4607   -3.7250    0.0000 H   0  0  0  0  0  0  0  0  0  0  0  0
   14.3364   -0.3326    0.0000 H   0  0  0  0  0  0  0  0  0  0  0  0
   14.7349    0.3577    0.0000 H   0  0  0  0  0  0  0  0  0  0  0  0
    2.3100   -2.2131    0.0000 H   0  0  0  0  0  0  0  0  0  0  0  0
    1.4631   -2.4400    0.0000 H   0  0  0  0  0  0  0  0  0  0  0  0
    1.6900   -3.2869    0.0000 H   0  0  0  0  0  0  0  0  0  0  0  0
    2.2460   -4.2500    0.0000 H   0  0  0  0  0  0  0  0  0  0  0  0
    2.8660   -4.8700    0.0000 H   0  0  0  0  0  0  0  0  0  0  0  0
    3.4860   -4.2500    0.0000 H   0  0  0  0  0  0  0  0  0  0  0  0
   17.0324    4.2131    0.0000 H   0  0  0  0  0  0  0  0  0  0  0  0
   17.2594    5.0600    0.0000 H   0  0  0  0  0  0  0  0  0  0  0  0
   16.4124    5.2869    0.0000 H   0  0  0  0  0  0  0  0  0  0  0  0
   15.3004    5.2869    0.0000 H   0  0  0  0  0  0  0  0  0  0  0  0
   14.4534    5.0600    0.0000 H   0  0  0  0  0  0  0  0  0  0  0  0
   14.6804    4.2131    0.0000 H   0  0  0  0  0  0  0  0  0  0  0  0
    9.3267   -2.2750    0.0000 H   0  0  0  0  0  0  0  0  0  0  0  0
    8.5297   -2.2750    0.0000 H   0  0  0  0  0  0  0  0  0  0  0  0
   13.0463    0.3326    0.0000 H   0  0  0  0  0  0  0  0  0  0  0  0
   12.6477   -0.3577    0.0000 H   0  0  0  0  0  0  0  0  0  0  0  0
   10.9893   -4.5600    0.0000 H   0  0  0  0  0  0  0  0  0  0  0  0
   13.7953   -2.9400    0.0000 H   0  0  0  0  0  0  0  0  0  0  0  0
   12.3923   -5.3700    0.0000 H   0  0  0  0  0  0  0  0  0  0  0  0
   13.7953   -4.5600    0.0000 H   0  0  0  0  0  0  0  0  0  0  0  0
  1 22  1  0  0  0  0
  1 24  1  0  0  0  0
  2 23  1  0  0  0  0
  2 25  1  0  0  0  0
  3 24  2  0  0  0  0
  4 25  2  0  0  0  0
  5  6  1  0  0  0  0
  5  7  1  0  0  0  0
  5 32  1  0  0  0  0
  5 33  1  0  0  0  0
  6  8  1  0  0  0  0
  6 34  1  0  0  0  0
  6 35  1  0  0  0  0
  7  9  1  0  0  0  0
  7 36  1  0  0  0  0
  7 37  1  0  0  0  0
  8 18  1  0  0  0  0
  8 19  1  0  0  0  0
  8 38  1  0  0  0  0
  9 14  1  0  0  0  0
  9 39  1  0  0  0  0
  9 40  1  0  0  0  0
 10 11  1  0  0  0  0
 10 12  1  0  0  0  0
 10 41  1  0  0  0  0
 10 42  1  0  0  0  0
 11 13  1  0  0  0  0
 11 43  1  0  0  0  0
 11 44  1  0  0  0  0
 12 20  1  0  0  0  0
 12 21  1  0  0  0  0
 12 45  1  0  0  0  0
 13 15  1  0  0  0  0
 13 46  1  0  0  0  0
 13 47  1  0  0  0  0
 14 16  1  0  0  0  0
 14 48  1  0  0  0  0
 14 49  1  0  0  0  0
 15 17  1  0  0  0  0
 15 50  1  0  0  0  0
 15 51  1  0  0  0  0
 16 22  1  0  0  0  0
 16 52  1  0  0  0  0
 16 53  1  0  0  0  0
 17 23  1  0  0  0  0
 17 54  1  0  0  0  0
 17 55  1  0  0  0  0
 18 56  1  0  0  0  0
 18 57  1  0  0  0  0
 18 58  1  0  0  0  0
 19 59  1  0  0  0  0
 19 60  1  0  0  0  0
 19 61  1  0  0  0  0
 20 62  1  0  0  0  0
 20 63  1  0  0  0  0
 20 64  1  0  0  0  0
 21 65  1  0  0  0  0
 21 66  1  0  0  0  0
 21 67  1  0  0  0  0
 22 68  1  0  0  0  0
 22 69  1  0  0  0  0
 23 70  1  0  0  0  0
 23 71  1  0  0  0  0
 24 26  1  0  0  0  0
 25 27  1  0  0  0  0
 26 27  1  0  0  0  0
 26 28  2  0  0  0  0
 27 29  2  0  0  0  0
 28 30  1  0  0  0  0
 28 72  1  0  0  0  0
 29 31  1  0  0  0  0
 29 73  1  0  0  0  0
 30 31  2  0  0  0  0
 30 74  1  0  0  0  0
 31 75  1  0  0  0  0
M  END
> <PUBCHEM_COMPOUND_CID>
44146763

> <PUBCHEM_COMPOUND_CANONICALIZED>
1

> <PUBCHEM_CACTVS_COMPLEXITY>
472

> <PUBCHEM_CACTVS_HBOND_ACCEPTOR>
4

> <PUBCHEM_CACTVS_HBOND_DONOR>
0

> <PUBCHEM_CACTVS_ROTATABLE_BOND>
19

> <PUBCHEM_CACTVS_SUBSKEYS>
AAADcfB4OAAAAAAAAAAAAAAAAAAAAAAAAAAwAAAAAAAAAAABAAAAGgAAAAAADQCgmAIyCIAABACIAiDSCAACAAAkAAAIiAEACMgIJjKANRiCMQAkwAEIqYfLyOCOgAAAAAAQAAAAAAAAACAAAAAAAAAAAA==

> <PUBCHEM_IUPAC_OPENEYE_NAME>
O1-(8-methylnonyl) O2-(7-methyloctyl) benzene-1,2-dicarboxylate

> <PUBCHEM_IUPAC_CAS_NAME>
benzene-1,2-dicarboxylic acid O1-(8-methylnonyl) ester O2-(7-methyloctyl) ester

> <PUBCHEM_IUPAC_NAME_MARKUP>
1-<I>O</I>-(8-methylnonyl) 2-<I>O</I>-(7-methyloctyl) benzene-1,2-dicarboxylate

> <PUBCHEM_IUPAC_NAME>
1-O-(8-methylnonyl) 2-O-(7-methyloctyl) benzene-1,2-dicarboxylate

> <PUBCHEM_IUPAC_SYSTEMATIC_NAME>
O1-(8-methylnonyl) O2-(7-methyloctyl) benzene-1,2-dicarboxylate

> <PUBCHEM_IUPAC_TRADITIONAL_NAME>
benzene-1,2-dicarboxylic acid O1-(8-methylnonyl) ester O2-(7-methyloctyl) ester

> <PUBCHEM_IUPAC_INCHI>
InChI=1S/C27H44O4/c1-22(2)16-10-6-5-8-14-20-30-26(28)24-18-12-13-19-25(24)27(29)31-21-15-9-7-11-17-23(3)4/h12-13,18-19,22-23H,5-11,14-17,20-21H2,1-4H3

> <PUBCHEM_IUPAC_INCHIKEY>
KCQILOGVXGLBNG-UHFFFAOYSA-N

> <PUBCHEM_XLOGP3>
10.1

> <PUBCHEM_EXACT_MASS>
432.32395988

> <PUBCHEM_MOLECULAR_FORMULA>
C27H44O4

> <PUBCHEM_MOLECULAR_WEIGHT>
432.6

> <PUBCHEM_SMILES>
CC(C)CCCCCCCOC(=O)C1=CC=CC=C1C(=O)OCCCCCCC(C)C

> <PUBCHEM_OPENEYE_CAN_SMILES>
CC(C)CCCCCCCOC(=O)C1=CC=CC=C1C(=O)OCCCCCCC(C)C

> <PUBCHEM_OPENEYE_ISO_SMILES>
CC(C)CCCCCCCOC(=O)C1=CC=CC=C1C(=O)OCCCCCCC(C)C

> <PUBCHEM_CACTVS_TPSA>
52.6

> <PUBCHEM_MONOISOTOPIC_WEIGHT>
432.32395988

> <PUBCHEM_TOTAL_CHARGE>
0

> <PUBCHEM_HEAVY_ATOM_COUNT>
31

> <PUBCHEM_ATOM_DEF_STEREO_COUNT>
0

> <PUBCHEM_ATOM_UDEF_STEREO_COUNT>
0

> <PUBCHEM_BOND_DEF_STEREO_COUNT>
0

> <PUBCHEM_BOND_UDEF_STEREO_COUNT>
0

> <PUBCHEM_ISOTOPIC_ATOM_COUNT>
0

> <PUBCHEM_COMPONENT_COUNT>
1

> <PUBCHEM_CACTVS_TAUTO_COUNT>
-1

> <PUBCHEM_COORDINATE_TYPE>
1
5
255

> <PUBCHEM_BONDANNOTATIONS>
26  27  8
26  28  8
27  29  8
28  30  8
29  31  8
30  31  8

$$$$
