44151620
  -OEChem-04042512392D

 37 24  0     0  0  0  0  0  0999 V2000
    6.7078    4.0981    0.0000 Fe  0  2  0  0  0  0  0  0  0  0  0  0
    3.0739    0.0000    0.0000 Fe  0  2  0  0  0  0  0  0  0  0  0  0
    5.5739    1.8660    0.0000 Fe  0  2  0  0  0  0  0  0  0  0  0  0
    7.0739    2.7320    0.0000 P   0  0  0  0  0  0  0  0  0  0  0  0
    4.0739    1.0000    0.0000 P   0  0  0  0  0  0  0  0  0  0  0  0
    6.5739    1.8660    0.0000 O   0  5  0  0  0  0  0  0  0  0  0  0
    6.2078    3.2320    0.0000 O   0  5  0  0  0  0  0  0  0  0  0  0
    7.5739    3.5981    0.0000 O   0  5  0  0  0  0  0  0  0  0  0  0
    3.0739    1.0000    0.0000 O   0  5  0  0  0  0  0  0  0  0  0  0
    4.0739    0.0000    0.0000 O   0  5  0  0  0  0  0  0  0  0  0  0
    5.0739    1.0000    0.0000 O   0  5  0  0  0  0  0  0  0  0  0  0
    7.9399    2.2320    0.0000 O   0  0  0  0  0  0  0  0  0  0  0  0
    4.0739    2.0000    0.0000 O   0  0  0  0  0  0  0  0  0  0  0  0
    5.5069    6.0981    0.0000 O   0  0  0  0  0  0  0  0  0  0  0  0
    5.5069   11.0981    0.0000 O   0  0  0  0  0  0  0  0  0  0  0  0
    5.5069    8.5981    0.0000 O   0  0  0  0  0  0  0  0  0  0  0  0
   10.4768    6.7990    0.0000 O   0  0  0  0  0  0  0  0  0  0  0  0
    0.5369    5.5490    0.0000 O   0  0  0  0  0  0  0  0  0  0  0  0
    5.5069   13.5981    0.0000 O   0  0  0  0  0  0  0  0  0  0  0  0
   13.5507    6.7990    0.0000 O   0  0  0  0  0  0  0  0  0  0  0  0
    0.5369    8.0490    0.0000 O   0  0  0  0  0  0  0  0  0  0  0  0
    6.0438    6.4081    0.0000 H   0  0  0  0  0  0  0  0  0  0  0  0
    4.9700    6.4081    0.0000 H   0  0  0  0  0  0  0  0  0  0  0  0
    6.0438   11.4081    0.0000 H   0  0  0  0  0  0  0  0  0  0  0  0
    4.9700   11.4081    0.0000 H   0  0  0  0  0  0  0  0  0  0  0  0
    6.0438    8.9081    0.0000 H   0  0  0  0  0  0  0  0  0  0  0  0
    4.9700    8.9081    0.0000 H   0  0  0  0  0  0  0  0  0  0  0  0
   11.0138    7.1090    0.0000 H   0  0  0  0  0  0  0  0  0  0  0  0
    9.9399    7.1090    0.0000 H   0  0  0  0  0  0  0  0  0  0  0  0
    1.0739    5.8590    0.0000 H   0  0  0  0  0  0  0  0  0  0  0  0
    0.0000    5.8590    0.0000 H   0  0  0  0  0  0  0  0  0  0  0  0
    6.0438   13.9081    0.0000 H   0  0  0  0  0  0  0  0  0  0  0  0
    4.9700   13.9081    0.0000 H   0  0  0  0  0  0  0  0  0  0  0  0
   14.0876    7.1090    0.0000 H   0  0  0  0  0  0  0  0  0  0  0  0
   13.0138    7.1090    0.0000 H   0  0  0  0  0  0  0  0  0  0  0  0
    1.0739    8.3590    0.0000 H   0  0  0  0  0  0  0  0  0  0  0  0
    0.0000    8.3590    0.0000 H   0  0  0  0  0  0  0  0  0  0  0  0
  4  6  1  0  0  0  0
  4  7  1  0  0  0  0
  4  8  1  0  0  0  0
  4 12  2  0  0  0  0
  5  9  1  0  0  0  0
  5 10  1  0  0  0  0
  5 11  1  0  0  0  0
  5 13  2  0  0  0  0
 14 22  1  0  0  0  0
 14 23  1  0  0  0  0
 15 24  1  0  0  0  0
 15 25  1  0  0  0  0
 16 26  1  0  0  0  0
 16 27  1  0  0  0  0
 17 28  1  0  0  0  0
 17 29  1  0  0  0  0
 18 30  1  0  0  0  0
 18 31  1  0  0  0  0
 19 32  1  0  0  0  0
 19 33  1  0  0  0  0
 20 34  1  0  0  0  0
 20 35  1  0  0  0  0
 21 36  1  0  0  0  0
 21 37  1  0  0  0  0
M  CHG  8   1   2   2   2   3   2   6  -1   7  -1   8  -1   9  -1  10  -1
M  CHG  1  11  -1
M  END
> <PUBCHEM_COMPOUND_CID>
44151620

> <PUBCHEM_COMPOUND_CANONICALIZED>
1

> <PUBCHEM_CACTVS_COMPLEXITY>
36.8

> <PUBCHEM_CACTVS_HBOND_ACCEPTOR>
16

> <PUBCHEM_CACTVS_HBOND_DONOR>
8

> <PUBCHEM_CACTVS_ROTATABLE_BOND>
0

> <PUBCHEM_CACTVS_SUBSKEYS>
AAADceAAPgMAAAAgAAAAAAAAAAAAAAAAAAAAAAAAAAAAAAAAAAAAAAAACCAAAAAAAAAAAAAAABAAQAAAAIAAAAAAAAAAAAAAAAAAAAAAAAAAAAAAAAAAAAAAAAAAAAAAAAAAAAAAAAAAAAAAAAAAAAAAAA==

> <PUBCHEM_IUPAC_OPENEYE_NAME>
triferrous;diphosphate;octahydrate

> <PUBCHEM_IUPAC_CAS_NAME>
iron(2+);diphosphate;octahydrate

> <PUBCHEM_IUPAC_NAME_MARKUP>
iron(2+);diphosphate;octahydrate

> <PUBCHEM_IUPAC_NAME>
iron(2+);diphosphate;octahydrate

> <PUBCHEM_IUPAC_SYSTEMATIC_NAME>
iron(2+);diphosphate;octahydrate

> <PUBCHEM_IUPAC_TRADITIONAL_NAME>
triferrous;diphosphate;octahydrate

> <PUBCHEM_IUPAC_INCHI>
InChI=1S/3Fe.2H3O4P.8H2O/c;;;2*1-5(2,3)4;;;;;;;;/h;;;2*(H3,1,2,3,4);8*1H2/q3*+2;;;;;;;;;;/p-6

> <PUBCHEM_IUPAC_INCHIKEY>
LEAMSPPOALICQN-UHFFFAOYSA-H

> <PUBCHEM_EXACT_MASS>
501.796165

> <PUBCHEM_MOLECULAR_FORMULA>
Fe3H16O16P2

> <PUBCHEM_MOLECULAR_WEIGHT>
501.60

> <PUBCHEM_SMILES>
O.O.O.O.O.O.O.O.[O-]P(=O)([O-])[O-].[O-]P(=O)([O-])[O-].[Fe+2].[Fe+2].[Fe+2]

> <PUBCHEM_OPENEYE_CAN_SMILES>
O.O.O.O.O.O.O.O.[O-]P(=O)([O-])[O-].[O-]P(=O)([O-])[O-].[Fe+2].[Fe+2].[Fe+2]

> <PUBCHEM_OPENEYE_ISO_SMILES>
O.O.O.O.O.O.O.O.[O-]P(=O)([O-])[O-].[O-]P(=O)([O-])[O-].[Fe+2].[Fe+2].[Fe+2]

> <PUBCHEM_CACTVS_TPSA>
181

> <PUBCHEM_MONOISOTOPIC_WEIGHT>
501.796165

> <PUBCHEM_TOTAL_CHARGE>
0

> <PUBCHEM_HEAVY_ATOM_COUNT>
21

> <PUBCHEM_ATOM_DEF_STEREO_COUNT>
0

> <PUBCHEM_ATOM_UDEF_STEREO_COUNT>
0

> <PUBCHEM_BOND_DEF_STEREO_COUNT>
0

> <PUBCHEM_BOND_UDEF_STEREO_COUNT>
0

> <PUBCHEM_ISOTOPIC_ATOM_COUNT>
0

> <PUBCHEM_COMPONENT_COUNT>
13

> <PUBCHEM_CACTVS_TAUTO_COUNT>
-1

> <PUBCHEM_COORDINATE_TYPE>
1
5
255

$$$$
