44151660
  -OEChem-04042506032D

 81 81  0     0  0  0  0  0  0999 V2000
   10.6603   -3.7500    0.0000 O   0  0  0  0  0  0  0  0  0  0  0  0
   14.1244   -1.7500    0.0000 O   0  0  0  0  0  0  0  0  0  0  0  0
   11.5263   -2.2500    0.0000 O   0  0  0  0  0  0  0  0  0  0  0  0
   12.3923   -1.7500    0.0000 O   0  0  0  0  0  0  0  0  0  0  0  0
    4.5981   -3.2500    0.0000 C   0  0  0  0  0  0  0  0  0  0  0  0
    5.4641   -3.7500    0.0000 C   0  0  0  0  0  0  0  0  0  0  0  0
    3.7320   -3.7500    0.0000 C   0  0  0  0  0  0  0  0  0  0  0  0
    6.3301   -3.2500    0.0000 C   0  0  0  0  0  0  0  0  0  0  0  0
   16.7224    2.7500    0.0000 C   0  0  0  0  0  0  0  0  0  0  0  0
    2.8660   -3.2500    0.0000 C   0  0  0  0  0  0  0  0  0  0  0  0
   16.7224    3.7500    0.0000 C   0  0  0  0  0  0  0  0  0  0  0  0
   15.8564    2.2500    0.0000 C   0  0  0  0  0  0  0  0  0  0  0  0
    7.1962   -3.7500    0.0000 C   0  0  0  0  0  0  0  0  0  0  0  0
   17.5885    4.2500    0.0000 C   0  0  0  0  0  0  0  0  0  0  0  0
   15.8564    1.2500    0.0000 C   0  0  0  0  0  0  0  0  0  0  0  0
    8.0622   -3.2500    0.0000 C   0  0  0  0  0  0  0  0  0  0  0  0
   14.9904    0.7500    0.0000 C   0  0  0  0  0  0  0  0  0  0  0  0
    8.9282   -3.7500    0.0000 C   0  0  0  0  0  0  0  0  0  0  0  0
    2.0000   -3.7500    0.0000 C   0  0  0  0  0  0  0  0  0  0  0  0
    2.8660   -2.2500    0.0000 C   0  0  0  0  0  0  0  0  0  0  0  0
   14.9904   -0.2500    0.0000 C   0  0  0  0  0  0  0  0  0  0  0  0
   17.5885    5.2500    0.0000 C   0  0  0  0  0  0  0  0  0  0  0  0
   18.4545    3.7500    0.0000 C   0  0  0  0  0  0  0  0  0  0  0  0
    9.7942   -3.2500    0.0000 C   0  0  0  0  0  0  0  0  0  0  0  0
   14.1244   -0.7500    0.0000 C   0  0  0  0  0  0  0  0  0  0  0  0
   11.5263   -3.2500    0.0000 C   0  0  0  0  0  0  0  0  0  0  0  0
   13.2583   -2.2500    0.0000 C   0  0  0  0  0  0  0  0  0  0  0  0
   12.3923   -3.7500    0.0000 C   0  0  0  0  0  0  0  0  0  0  0  0
   13.2583   -3.2500    0.0000 C   0  0  0  0  0  0  0  0  0  0  0  0
   12.3923   -4.7500    0.0000 C   0  0  0  0  0  0  0  0  0  0  0  0
   14.1244   -3.7500    0.0000 C   0  0  0  0  0  0  0  0  0  0  0  0
   13.2583   -5.2500    0.0000 C   0  0  0  0  0  0  0  0  0  0  0  0
   14.1244   -4.7500    0.0000 C   0  0  0  0  0  0  0  0  0  0  0  0
    4.9966   -2.7750    0.0000 H   0  0  0  0  0  0  0  0  0  0  0  0
    4.1996   -2.7750    0.0000 H   0  0  0  0  0  0  0  0  0  0  0  0
    5.0656   -4.2250    0.0000 H   0  0  0  0  0  0  0  0  0  0  0  0
    5.8626   -4.2250    0.0000 H   0  0  0  0  0  0  0  0  0  0  0  0
    3.3335   -4.2250    0.0000 H   0  0  0  0  0  0  0  0  0  0  0  0
    4.1306   -4.2250    0.0000 H   0  0  0  0  0  0  0  0  0  0  0  0
    6.7287   -2.7750    0.0000 H   0  0  0  0  0  0  0  0  0  0  0  0
    5.9316   -2.7750    0.0000 H   0  0  0  0  0  0  0  0  0  0  0  0
   16.9345    2.1674    0.0000 H   0  0  0  0  0  0  0  0  0  0  0  0
   17.3330    2.8577    0.0000 H   0  0  0  0  0  0  0  0  0  0  0  0
    2.8660   -3.8700    0.0000 H   0  0  0  0  0  0  0  0  0  0  0  0
   16.5104    4.3326    0.0000 H   0  0  0  0  0  0  0  0  0  0  0  0
   16.1119    3.6423    0.0000 H   0  0  0  0  0  0  0  0  0  0  0  0
   15.6444    2.8326    0.0000 H   0  0  0  0  0  0  0  0  0  0  0  0
   15.2458    2.1423    0.0000 H   0  0  0  0  0  0  0  0  0  0  0  0
    6.7976   -4.2250    0.0000 H   0  0  0  0  0  0  0  0  0  0  0  0
    7.5947   -4.2250    0.0000 H   0  0  0  0  0  0  0  0  0  0  0  0
   17.5885    3.6300    0.0000 H   0  0  0  0  0  0  0  0  0  0  0  0
   16.0685    0.6674    0.0000 H   0  0  0  0  0  0  0  0  0  0  0  0
   16.4670    1.3577    0.0000 H   0  0  0  0  0  0  0  0  0  0  0  0
    8.4607   -2.7750    0.0000 H   0  0  0  0  0  0  0  0  0  0  0  0
    7.6636   -2.7750    0.0000 H   0  0  0  0  0  0  0  0  0  0  0  0
   14.7783    1.3326    0.0000 H   0  0  0  0  0  0  0  0  0  0  0  0
   14.3798    0.6423    0.0000 H   0  0  0  0  0  0  0  0  0  0  0  0
    8.5297   -4.2250    0.0000 H   0  0  0  0  0  0  0  0  0  0  0  0
    9.3267   -4.2250    0.0000 H   0  0  0  0  0  0  0  0  0  0  0  0
    1.6900   -3.2131    0.0000 H   0  0  0  0  0  0  0  0  0  0  0  0
    1.4631   -4.0600    0.0000 H   0  0  0  0  0  0  0  0  0  0  0  0
    2.3100   -4.2869    0.0000 H   0  0  0  0  0  0  0  0  0  0  0  0
    3.4860   -2.2500    0.0000 H   0  0  0  0  0  0  0  0  0  0  0  0
    2.8660   -1.6300    0.0000 H   0  0  0  0  0  0  0  0  0  0  0  0
    2.2460   -2.2500    0.0000 H   0  0  0  0  0  0  0  0  0  0  0  0
   15.2024   -0.8326    0.0000 H   0  0  0  0  0  0  0  0  0  0  0  0
   15.6010   -0.1423    0.0000 H   0  0  0  0  0  0  0  0  0  0  0  0
   18.2085    5.2500    0.0000 H   0  0  0  0  0  0  0  0  0  0  0  0
   17.5885    5.8700    0.0000 H   0  0  0  0  0  0  0  0  0  0  0  0
   16.9685    5.2500    0.0000 H   0  0  0  0  0  0  0  0  0  0  0  0
   18.1445    3.2131    0.0000 H   0  0  0  0  0  0  0  0  0  0  0  0
   18.9914    3.4400    0.0000 H   0  0  0  0  0  0  0  0  0  0  0  0
   18.7645    4.2869    0.0000 H   0  0  0  0  0  0  0  0  0  0  0  0
   10.1928   -2.7750    0.0000 H   0  0  0  0  0  0  0  0  0  0  0  0
    9.3957   -2.7750    0.0000 H   0  0  0  0  0  0  0  0  0  0  0  0
   13.9123   -0.1674    0.0000 H   0  0  0  0  0  0  0  0  0  0  0  0
   13.5138   -0.8577    0.0000 H   0  0  0  0  0  0  0  0  0  0  0  0
   11.8554   -5.0600    0.0000 H   0  0  0  0  0  0  0  0  0  0  0  0
   14.6613   -3.4400    0.0000 H   0  0  0  0  0  0  0  0  0  0  0  0
   13.2583   -5.8700    0.0000 H   0  0  0  0  0  0  0  0  0  0  0  0
   14.6613   -5.0600    0.0000 H   0  0  0  0  0  0  0  0  0  0  0  0
  1 24  1  0  0  0  0
  1 26  1  0  0  0  0
  2 25  1  0  0  0  0
  2 27  1  0  0  0  0
  3 26  2  0  0  0  0
  4 27  2  0  0  0  0
  5  6  1  0  0  0  0
  5  7  1  0  0  0  0
  5 34  1  0  0  0  0
  5 35  1  0  0  0  0
  6  8  1  0  0  0  0
  6 36  1  0  0  0  0
  6 37  1  0  0  0  0
  7 10  1  0  0  0  0
  7 38  1  0  0  0  0
  7 39  1  0  0  0  0
  8 13  1  0  0  0  0
  8 40  1  0  0  0  0
  8 41  1  0  0  0  0
  9 11  1  0  0  0  0
  9 12  1  0  0  0  0
  9 42  1  0  0  0  0
  9 43  1  0  0  0  0
 10 19  1  0  0  0  0
 10 20  1  0  0  0  0
 10 44  1  0  0  0  0
 11 14  1  0  0  0  0
 11 45  1  0  0  0  0
 11 46  1  0  0  0  0
 12 15  1  0  0  0  0
 12 47  1  0  0  0  0
 12 48  1  0  0  0  0
 13 16  1  0  0  0  0
 13 49  1  0  0  0  0
 13 50  1  0  0  0  0
 14 22  1  0  0  0  0
 14 23  1  0  0  0  0
 14 51  1  0  0  0  0
 15 17  1  0  0  0  0
 15 52  1  0  0  0  0
 15 53  1  0  0  0  0
 16 18  1  0  0  0  0
 16 54  1  0  0  0  0
 16 55  1  0  0  0  0
 17 21  1  0  0  0  0
 17 56  1  0  0  0  0
 17 57  1  0  0  0  0
 18 24  1  0  0  0  0
 18 58  1  0  0  0  0
 18 59  1  0  0  0  0
 19 60  1  0  0  0  0
 19 61  1  0  0  0  0
 19 62  1  0  0  0  0
 20 63  1  0  0  0  0
 20 64  1  0  0  0  0
 20 65  1  0  0  0  0
 21 25  1  0  0  0  0
 21 66  1  0  0  0  0
 21 67  1  0  0  0  0
 22 68  1  0  0  0  0
 22 69  1  0  0  0  0
 22 70  1  0  0  0  0
 23 71  1  0  0  0  0
 23 72  1  0  0  0  0
 23 73  1  0  0  0  0
 24 74  1  0  0  0  0
 24 75  1  0  0  0  0
 25 76  1  0  0  0  0
 25 77  1  0  0  0  0
 26 28  1  0  0  0  0
 27 29  1  0  0  0  0
 28 29  1  0  0  0  0
 28 30  2  0  0  0  0
 29 31  2  0  0  0  0
 30 32  1  0  0  0  0
 30 78  1  0  0  0  0
 31 33  1  0  0  0  0
 31 79  1  0  0  0  0
 32 33  2  0  0  0  0
 32 80  1  0  0  0  0
 33 81  1  0  0  0  0
M  END
> <PUBCHEM_COMPOUND_CID>
44151660

> <PUBCHEM_COMPOUND_CANONICALIZED>
1

> <PUBCHEM_CACTVS_COMPLEXITY>
500

> <PUBCHEM_CACTVS_HBOND_ACCEPTOR>
4

> <PUBCHEM_CACTVS_HBOND_DONOR>
0

> <PUBCHEM_CACTVS_ROTATABLE_BOND>
21

> <PUBCHEM_CACTVS_SUBSKEYS>
AAADcfB4OAAAAAAAAAAAAAAAAAAAAAAAAAAwAAAAAAAAAAABAAAAGgAAAAAADQCgmAIyCIAABACIAiDSCAACAAAkAAAIiAEACMgIJjKANRiCMQAkwAEIqYfLyOCOgAAAAAAQAAAAAAAAACAAAAAAAAAAAA==

> <PUBCHEM_IUPAC_OPENEYE_NAME>
O1-(9-methyldecyl) O2-(8-methylnonyl) benzene-1,2-dicarboxylate

> <PUBCHEM_IUPAC_CAS_NAME>
benzene-1,2-dicarboxylic acid O1-(9-methyldecyl) ester O2-(8-methylnonyl) ester

> <PUBCHEM_IUPAC_NAME_MARKUP>
1-<I>O</I>-(9-methyldecyl) 2-<I>O</I>-(8-methylnonyl) benzene-1,2-dicarboxylate

> <PUBCHEM_IUPAC_NAME>
1-O-(9-methyldecyl) 2-O-(8-methylnonyl) benzene-1,2-dicarboxylate

> <PUBCHEM_IUPAC_SYSTEMATIC_NAME>
O1-(9-methyldecyl) O2-(8-methylnonyl) benzene-1,2-dicarboxylate

> <PUBCHEM_IUPAC_TRADITIONAL_NAME>
benzene-1,2-dicarboxylic acid O1-(9-methyldecyl) ester O2-(8-methylnonyl) ester

> <PUBCHEM_IUPAC_INCHI>
InChI=1S/C29H48O4/c1-24(2)18-12-8-5-6-10-16-22-32-28(30)26-20-14-15-21-27(26)29(31)33-23-17-11-7-9-13-19-25(3)4/h14-15,20-21,24-25H,5-13,16-19,22-23H2,1-4H3

> <PUBCHEM_IUPAC_INCHIKEY>
JDIWRCVIEKCANJ-UHFFFAOYSA-N

> <PUBCHEM_XLOGP3>
11.2

> <PUBCHEM_EXACT_MASS>
460.35526001

> <PUBCHEM_MOLECULAR_FORMULA>
C29H48O4

> <PUBCHEM_MOLECULAR_WEIGHT>
460.7

> <PUBCHEM_SMILES>
CC(C)CCCCCCCCOC(=O)C1=CC=CC=C1C(=O)OCCCCCCCC(C)C

> <PUBCHEM_OPENEYE_CAN_SMILES>
CC(C)CCCCCCCCOC(=O)C1=CC=CC=C1C(=O)OCCCCCCCC(C)C

> <PUBCHEM_OPENEYE_ISO_SMILES>
CC(C)CCCCCCCCOC(=O)C1=CC=CC=C1C(=O)OCCCCCCCC(C)C

> <PUBCHEM_CACTVS_TPSA>
52.6

> <PUBCHEM_MONOISOTOPIC_WEIGHT>
460.35526001

> <PUBCHEM_TOTAL_CHARGE>
0

> <PUBCHEM_HEAVY_ATOM_COUNT>
33

> <PUBCHEM_ATOM_DEF_STEREO_COUNT>
0

> <PUBCHEM_ATOM_UDEF_STEREO_COUNT>
0

> <PUBCHEM_BOND_DEF_STEREO_COUNT>
0

> <PUBCHEM_BOND_UDEF_STEREO_COUNT>
0

> <PUBCHEM_ISOTOPIC_ATOM_COUNT>
0

> <PUBCHEM_COMPONENT_COUNT>
1

> <PUBCHEM_CACTVS_TAUTO_COUNT>
-1

> <PUBCHEM_COORDINATE_TYPE>
1
5
255

> <PUBCHEM_BONDANNOTATIONS>
28  29  8
28  30  8
29  31  8
30  32  8
31  33  8
32  33  8

$$$$
