46221768
  -OEChem-04042506012D

 26 24  0     0  0  0  0  0  0999 V2000
    3.9641    0.1340    0.0000 F   0  0  0  0  0  0  0  0  0  0  0  0
    2.9641    1.8660    0.0000 F   0  0  0  0  0  0  0  0  0  0  0  0
    3.8301    2.3660    0.0000 F   0  0  0  0  0  0  0  0  0  0  0  0
    4.8301    0.6340    0.0000 F   0  0  0  0  0  0  0  0  0  0  0  0
    1.2320    0.1340    0.0000 F   0  0  0  0  0  0  0  0  0  0  0  0
    2.2320    1.8660    0.0000 F   0  0  0  0  0  0  0  0  0  0  0  0
    0.0000    2.0000    0.0000 F   0  0  0  0  0  0  0  0  0  0  0  0
    0.3660    0.6340    0.0000 F   0  0  0  0  0  0  0  0  0  0  0  0
    1.3660    2.3660    0.0000 F   0  0  0  0  0  0  0  0  0  0  0  0
    6.5622    2.3660    0.0000 F   0  0  0  0  0  0  0  0  0  0  0  0
    5.5622    0.6340    0.0000 F   0  0  0  0  0  0  0  0  0  0  0  0
    2.5981    0.5000    0.0000 O   0  0  0  0  0  0  0  0  0  0  0  0
    5.1962    2.0000    0.0000 O   0  0  0  0  0  0  0  0  0  0  0  0
    7.7942    1.5000    0.0000 O   0  5  0  0  0  0  0  0  0  0  0  0
    6.9282    0.0000    0.0000 O   0  0  0  0  0  0  0  0  0  0  0  0
    3.8971    4.9030    0.0000 N   0  3  0  0  0  0  0  0  0  0  0  0
    3.4641    1.0000    0.0000 C   0  0  0  0  0  0  0  0  0  0  0  0
    4.3301    1.5000    0.0000 C   0  0  0  0  0  0  0  0  0  0  0  0
    1.7320    1.0000    0.0000 C   0  0  0  0  0  0  0  0  0  0  0  0
    0.8660    1.5000    0.0000 C   0  0  0  0  0  0  0  0  0  0  0  0
    6.0622    1.5000    0.0000 C   0  0  0  0  0  0  0  0  0  0  0  0
    6.9282    1.0000    0.0000 C   0  0  0  0  0  0  0  0  0  0  0  0
    4.4340    5.2130    0.0000 H   0  0  0  0  0  0  0  0  0  0  0  0
    3.3602    4.5930    0.0000 H   0  0  0  0  0  0  0  0  0  0  0  0
    3.5871    5.4399    0.0000 H   0  0  0  0  0  0  0  0  0  0  0  0
    4.2071    4.3660    0.0000 H   0  0  0  0  0  0  0  0  0  0  0  0
  1 17  1  0  0  0  0
  2 17  1  0  0  0  0
  3 18  1  0  0  0  0
  4 18  1  0  0  0  0
  5 19  1  0  0  0  0
  6 19  1  0  0  0  0
  7 20  1  0  0  0  0
  8 20  1  0  0  0  0
  9 20  1  0  0  0  0
 10 21  1  0  0  0  0
 11 21  1  0  0  0  0
 12 17  1  0  0  0  0
 12 19  1  0  0  0  0
 13 18  1  0  0  0  0
 13 21  1  0  0  0  0
 14 22  1  0  0  0  0
 15 22  2  0  0  0  0
 16 23  1  0  0  0  0
 16 24  1  0  0  0  0
 16 25  1  0  0  0  0
 16 26  1  0  0  0  0
 17 18  1  0  0  0  0
 19 20  1  0  0  0  0
 21 22  1  0  0  0  0
M  CHG  2  14  -1  16   1
M  END
> <PUBCHEM_COMPOUND_CID>
46221768

> <PUBCHEM_COMPOUND_CANONICALIZED>
1

> <PUBCHEM_CACTVS_COMPLEXITY>
394

> <PUBCHEM_CACTVS_HBOND_ACCEPTOR>
15

> <PUBCHEM_CACTVS_HBOND_DONOR>
1

> <PUBCHEM_CACTVS_ROTATABLE_BOND>
5

> <PUBCHEM_CACTVS_SUBSKEYS>
AAADcYBiOcAAAAAAAAAAAAAAAAAAAAAAAAAAAAAAAAAAAAAAAAAACwAQAAAAAAAAgBAACAAABAAIAACQCAIAAAAAAAAAAABAAAABAAAAAAQCAAAAAAACAAAAAAAAAAAAAAAAAAAAAAAAAAAAAAAAAAAAAA==

> <PUBCHEM_IUPAC_OPENEYE_NAME>
ammonium;2,2-difluoro-2-[1,1,2,2-tetrafluoro-2-(1,1,2,2,2-pentafluoroethoxy)ethoxy]acetate

> <PUBCHEM_IUPAC_CAS_NAME>
ammonium;2,2-difluoro-2-[1,1,2,2-tetrafluoro-2-(1,1,2,2,2-pentafluoroethoxy)ethoxy]acetate

> <PUBCHEM_IUPAC_NAME_MARKUP>
azanium;2,2-difluoro-2-[1,1,2,2-tetrafluoro-2-(1,1,2,2,2-pentafluoroethoxy)ethoxy]acetate

> <PUBCHEM_IUPAC_NAME>
azanium;2,2-difluoro-2-[1,1,2,2-tetrafluoro-2-(1,1,2,2,2-pentafluoroethoxy)ethoxy]acetate

> <PUBCHEM_IUPAC_SYSTEMATIC_NAME>
azanium;2,2-bis(fluoranyl)-2-[1,1,2,2-tetrakis(fluoranyl)-2-[1,1,2,2,2-pentakis(fluoranyl)ethoxy]ethoxy]ethanoate

> <PUBCHEM_IUPAC_TRADITIONAL_NAME>
ammonium;2,2-difluoro-2-[1,1,2,2-tetrafluoro-2-(1,1,2,2,2-pentafluoroethoxy)ethoxy]acetate

> <PUBCHEM_IUPAC_INCHI>
InChI=1S/C6HF11O4.H3N/c7-2(8,1(18)19)20-5(14,15)6(16,17)21-4(12,13)3(9,10)11;/h(H,18,19);1H3

> <PUBCHEM_IUPAC_INCHIKEY>
UEVSRUAUNBKSPD-UHFFFAOYSA-N

> <PUBCHEM_EXACT_MASS>
362.99646739

> <PUBCHEM_MOLECULAR_FORMULA>
C6H4F11NO4

> <PUBCHEM_MOLECULAR_WEIGHT>
363.08

> <PUBCHEM_SMILES>
C(=O)(C(OC(C(OC(C(F)(F)F)(F)F)(F)F)(F)F)(F)F)[O-].[NH4+]

> <PUBCHEM_OPENEYE_CAN_SMILES>
C(=O)(C(OC(C(OC(C(F)(F)F)(F)F)(F)F)(F)F)(F)F)[O-].[NH4+]

> <PUBCHEM_OPENEYE_ISO_SMILES>
C(=O)(C(OC(C(OC(C(F)(F)F)(F)F)(F)F)(F)F)(F)F)[O-].[NH4+]

> <PUBCHEM_CACTVS_TPSA>
59.6

> <PUBCHEM_MONOISOTOPIC_WEIGHT>
362.99646739

> <PUBCHEM_TOTAL_CHARGE>
0

> <PUBCHEM_HEAVY_ATOM_COUNT>
22

> <PUBCHEM_ATOM_DEF_STEREO_COUNT>
0

> <PUBCHEM_ATOM_UDEF_STEREO_COUNT>
0

> <PUBCHEM_BOND_DEF_STEREO_COUNT>
0

> <PUBCHEM_BOND_UDEF_STEREO_COUNT>
0

> <PUBCHEM_ISOTOPIC_ATOM_COUNT>
0

> <PUBCHEM_COMPONENT_COUNT>
2

> <PUBCHEM_CACTVS_TAUTO_COUNT>
-1

> <PUBCHEM_COORDINATE_TYPE>
1
5
255

$$$$
