4677518
  -OEChem-04042505432D

 44 45  0     0  0  0  0  0  0999 V2000
    4.5981   -0.7500    0.0000 O   0  0  0  0  0  0  0  0  0  0  0  0
    2.8660    2.2500    0.0000 O   0  0  0  0  0  0  0  0  0  0  0  0
    3.7320    3.7500    0.0000 O   0  0  0  0  0  0  0  0  0  0  0  0
    2.8660   -2.7500    0.0000 C   0  0  0  0  0  0  0  0  0  0  0  0
    2.8660   -3.7500    0.0000 C   0  0  0  0  0  0  0  0  0  0  0  0
    3.7320   -2.2500    0.0000 C   0  0  0  0  0  0  0  0  0  0  0  0
    2.0000   -4.2500    0.0000 C   0  0  0  0  0  0  0  0  0  0  0  0
    3.7320   -1.2500    0.0000 C   0  0  0  0  0  0  0  0  0  0  0  0
    2.0000   -5.2500    0.0000 C   0  0  0  0  0  0  0  0  0  0  0  0
    4.5981    0.2500    0.0000 C   0  0  0  0  0  0  0  0  0  0  0  0
    4.5981    2.2500    0.0000 C   0  0  0  0  0  0  0  0  0  0  0  0
    3.7320    0.7500    0.0000 C   0  0  0  0  0  0  0  0  0  0  0  0
    5.4641    0.7500    0.0000 C   0  0  0  0  0  0  0  0  0  0  0  0
    3.7320    1.7500    0.0000 C   0  0  0  0  0  0  0  0  0  0  0  0
    5.4641    1.7500    0.0000 C   0  0  0  0  0  0  0  0  0  0  0  0
    4.5981    3.2500    0.0000 C   0  0  0  0  0  0  0  0  0  0  0  0
    5.4641    3.7500    0.0000 C   0  0  0  0  0  0  0  0  0  0  0  0
    6.3301    3.2500    0.0000 C   0  0  0  0  0  0  0  0  0  0  0  0
    5.4641    4.7500    0.0000 C   0  0  0  0  0  0  0  0  0  0  0  0
    7.1962    3.7500    0.0000 C   0  0  0  0  0  0  0  0  0  0  0  0
    6.3301    5.2500    0.0000 C   0  0  0  0  0  0  0  0  0  0  0  0
    7.1962    4.7500    0.0000 C   0  0  0  0  0  0  0  0  0  0  0  0
    2.6540   -2.1674    0.0000 H   0  0  0  0  0  0  0  0  0  0  0  0
    2.2554   -2.8577    0.0000 H   0  0  0  0  0  0  0  0  0  0  0  0
    3.0781   -4.3326    0.0000 H   0  0  0  0  0  0  0  0  0  0  0  0
    3.4766   -3.6423    0.0000 H   0  0  0  0  0  0  0  0  0  0  0  0
    3.9441   -2.8326    0.0000 H   0  0  0  0  0  0  0  0  0  0  0  0
    4.3426   -2.1423    0.0000 H   0  0  0  0  0  0  0  0  0  0  0  0
    1.7880   -3.6674    0.0000 H   0  0  0  0  0  0  0  0  0  0  0  0
    1.3894   -4.3577    0.0000 H   0  0  0  0  0  0  0  0  0  0  0  0
    3.5200   -0.6674    0.0000 H   0  0  0  0  0  0  0  0  0  0  0  0
    3.1215   -1.3577    0.0000 H   0  0  0  0  0  0  0  0  0  0  0  0
    1.3800   -5.2500    0.0000 H   0  0  0  0  0  0  0  0  0  0  0  0
    2.0000   -5.8700    0.0000 H   0  0  0  0  0  0  0  0  0  0  0  0
    2.6200   -5.2500    0.0000 H   0  0  0  0  0  0  0  0  0  0  0  0
    3.1951    0.4400    0.0000 H   0  0  0  0  0  0  0  0  0  0  0  0
    6.0010    0.4400    0.0000 H   0  0  0  0  0  0  0  0  0  0  0  0
    6.0010    2.0600    0.0000 H   0  0  0  0  0  0  0  0  0  0  0  0
    6.3301    2.6300    0.0000 H   0  0  0  0  0  0  0  0  0  0  0  0
    4.9272    5.0600    0.0000 H   0  0  0  0  0  0  0  0  0  0  0  0
    7.7331    3.4400    0.0000 H   0  0  0  0  0  0  0  0  0  0  0  0
    6.3301    5.8700    0.0000 H   0  0  0  0  0  0  0  0  0  0  0  0
    2.3291    1.9400    0.0000 H   0  0  0  0  0  0  0  0  0  0  0  0
    7.7331    5.0600    0.0000 H   0  0  0  0  0  0  0  0  0  0  0  0
  1  8  1  0  0  0  0
  1 10  1  0  0  0  0
  2 14  1  0  0  0  0
  2 43  1  0  0  0  0
  3 16  2  0  0  0  0
  4  5  1  0  0  0  0
  4  6  1  0  0  0  0
  4 23  1  0  0  0  0
  4 24  1  0  0  0  0
  5  7  1  0  0  0  0
  5 25  1  0  0  0  0
  5 26  1  0  0  0  0
  6  8  1  0  0  0  0
  6 27  1  0  0  0  0
  6 28  1  0  0  0  0
  7  9  1  0  0  0  0
  7 29  1  0  0  0  0
  7 30  1  0  0  0  0
  8 31  1  0  0  0  0
  8 32  1  0  0  0  0
  9 33  1  0  0  0  0
  9 34  1  0  0  0  0
  9 35  1  0  0  0  0
 10 12  2  0  0  0  0
 10 13  1  0  0  0  0
 11 14  2  0  0  0  0
 11 15  1  0  0  0  0
 11 16  1  0  0  0  0
 12 14  1  0  0  0  0
 12 36  1  0  0  0  0
 13 15  2  0  0  0  0
 13 37  1  0  0  0  0
 15 38  1  0  0  0  0
 16 17  1  0  0  0  0
 17 18  2  0  0  0  0
 17 19  1  0  0  0  0
 18 20  1  0  0  0  0
 18 39  1  0  0  0  0
 19 21  2  0  0  0  0
 19 40  1  0  0  0  0
 20 22  2  0  0  0  0
 20 41  1  0  0  0  0
 21 22  1  0  0  0  0
 21 42  1  0  0  0  0
 22 44  1  0  0  0  0
M  END
> <PUBCHEM_COMPOUND_CID>
4677518

> <PUBCHEM_COMPOUND_CANONICALIZED>
1

> <PUBCHEM_CACTVS_COMPLEXITY>
323

> <PUBCHEM_CACTVS_HBOND_ACCEPTOR>
3

> <PUBCHEM_CACTVS_HBOND_DONOR>
1

> <PUBCHEM_CACTVS_ROTATABLE_BOND>
8

> <PUBCHEM_CACTVS_SUBSKEYS>
AAADceB4MAAAAAAAAAAAAAAAAAAAAAAAAAAwYAAAAAAAAAABQAAAGgAACAAADASgmAIyBoAABgCIAqBSAAACCAAkIAAIiAEGCMgMJzaGNRqCeWCl4BUIuYeI7OzOIAAACAAIAABAAAAQABAAAAAAAAAAAA==

> <PUBCHEM_IUPAC_OPENEYE_NAME>
(4-hexoxy-2-hydroxy-phenyl)-phenyl-methanone

> <PUBCHEM_IUPAC_CAS_NAME>
(4-hexoxy-2-hydroxyphenyl)-phenylmethanone

> <PUBCHEM_IUPAC_NAME_MARKUP>
(4-hexoxy-2-hydroxyphenyl)-phenylmethanone

> <PUBCHEM_IUPAC_NAME>
(4-hexoxy-2-hydroxyphenyl)-phenylmethanone

> <PUBCHEM_IUPAC_SYSTEMATIC_NAME>
(4-hexoxy-2-oxidanyl-phenyl)-phenyl-methanone

> <PUBCHEM_IUPAC_TRADITIONAL_NAME>
(4-hexoxy-2-hydroxy-phenyl)-phenyl-methanone

> <PUBCHEM_IUPAC_INCHI>
InChI=1S/C19H22O3/c1-2-3-4-8-13-22-16-11-12-17(18(20)14-16)19(21)15-9-6-5-7-10-15/h5-7,9-12,14,20H,2-4,8,13H2,1H3

> <PUBCHEM_IUPAC_INCHIKEY>
KGBWWTXUSOPASH-UHFFFAOYSA-N

> <PUBCHEM_XLOGP3_AA>
5.8

> <PUBCHEM_EXACT_MASS>
298.15689456

> <PUBCHEM_MOLECULAR_FORMULA>
C19H22O3

> <PUBCHEM_MOLECULAR_WEIGHT>
298.4

> <PUBCHEM_SMILES>
CCCCCCOC1=CC(=C(C=C1)C(=O)C2=CC=CC=C2)O

> <PUBCHEM_OPENEYE_CAN_SMILES>
CCCCCCOC1=CC(=C(C=C1)C(=O)C2=CC=CC=C2)O

> <PUBCHEM_OPENEYE_ISO_SMILES>
CCCCCCOC1=CC(=C(C=C1)C(=O)C2=CC=CC=C2)O

> <PUBCHEM_CACTVS_TPSA>
46.5

> <PUBCHEM_MONOISOTOPIC_WEIGHT>
298.15689456

> <PUBCHEM_TOTAL_CHARGE>
0

> <PUBCHEM_HEAVY_ATOM_COUNT>
22

> <PUBCHEM_ATOM_DEF_STEREO_COUNT>
0

> <PUBCHEM_ATOM_UDEF_STEREO_COUNT>
0

> <PUBCHEM_BOND_DEF_STEREO_COUNT>
0

> <PUBCHEM_BOND_UDEF_STEREO_COUNT>
0

> <PUBCHEM_ISOTOPIC_ATOM_COUNT>
0

> <PUBCHEM_COMPONENT_COUNT>
1

> <PUBCHEM_CACTVS_TAUTO_COUNT>
-1

> <PUBCHEM_COORDINATE_TYPE>
1
5
255

> <PUBCHEM_BONDANNOTATIONS>
10  12  8
10  13  8
11  14  8
11  15  8
12  14  8
13  15  8
17  18  8
17  19  8
18  20  8
19  21  8
20  22  8
21  22  8

$$$$
