47932
  -OEChem-04042512222D

 28 26  0     0  0  0  0  0  0999 V2000
    3.0680    0.0000    0.0000 Cl  0  0  0  0  0  0  0  0  0  0  0  0
    3.0680    2.5000    0.0000 Cl  0  0  0  0  0  0  0  0  0  0  0  0
    3.1350    7.6200    0.0000 O   0  0  0  0  0  0  0  0  0  0  0  0
    0.5369    7.1200    0.0000 O   0  0  0  0  0  0  0  0  0  0  0  0
    4.8671    8.6200    0.0000 N   0  0  0  0  0  0  0  0  0  0  0  0
    6.5991    5.6200    0.0000 N   0  0  0  0  0  0  0  0  0  0  0  0
    4.0010    7.1200    0.0000 C   0  0  0  0  0  0  0  0  0  0  0  0
    4.8671    7.6200    0.0000 C   0  0  0  0  0  0  0  0  0  0  0  0
    4.0010    6.1200    0.0000 C   0  0  0  0  0  0  0  0  0  0  0  0
    5.7331    7.1200    0.0000 C   0  0  0  0  0  0  0  0  0  0  0  0
    5.7331    6.1200    0.0000 C   0  0  0  0  0  0  0  0  0  0  0  0
    2.2690    7.1200    0.0000 C   0  0  0  0  0  0  0  0  0  0  0  0
    4.8671    5.6200    0.0000 C   0  0  0  0  0  0  0  0  0  0  0  0
    1.4030    7.6200    0.0000 C   0  0  0  0  0  0  0  0  0  0  0  0
    3.4641    5.8100    0.0000 H   0  0  0  0  0  0  0  0  0  0  0  0
    6.2700    7.4300    0.0000 H   0  0  0  0  0  0  0  0  0  0  0  0
    1.8705    6.6450    0.0000 H   0  0  0  0  0  0  0  0  0  0  0  0
    2.6675    6.6450    0.0000 H   0  0  0  0  0  0  0  0  0  0  0  0
    4.8671    5.0000    0.0000 H   0  0  0  0  0  0  0  0  0  0  0  0
    1.8015    8.0950    0.0000 H   0  0  0  0  0  0  0  0  0  0  0  0
    1.0044    8.0950    0.0000 H   0  0  0  0  0  0  0  0  0  0  0  0
    5.4040    8.9300    0.0000 H   0  0  0  0  0  0  0  0  0  0  0  0
    4.3301    8.9300    0.0000 H   0  0  0  0  0  0  0  0  0  0  0  0
    6.5991    5.0000    0.0000 H   0  0  0  0  0  0  0  0  0  0  0  0
    7.1360    5.9300    0.0000 H   0  0  0  0  0  0  0  0  0  0  0  0
    0.0000    7.4300    0.0000 H   0  0  0  0  0  0  0  0  0  0  0  0
    4.0680    0.0000    0.0000 H   0  0  0  0  0  0  0  0  0  0  0  0
    4.0680    2.5000    0.0000 H   0  0  0  0  0  0  0  0  0  0  0  0
  1 27  1  0  0  0  0
  2 28  1  0  0  0  0
  3  7  1  0  0  0  0
  3 12  1  0  0  0  0
  4 14  1  0  0  0  0
  4 26  1  0  0  0  0
  5  8  1  0  0  0  0
  5 22  1  0  0  0  0
  5 23  1  0  0  0  0
  6 11  1  0  0  0  0
  6 24  1  0  0  0  0
  6 25  1  0  0  0  0
  7  8  2  0  0  0  0
  7  9  1  0  0  0  0
  8 10  1  0  0  0  0
  9 13  2  0  0  0  0
  9 15  1  0  0  0  0
 10 11  2  0  0  0  0
 10 16  1  0  0  0  0
 11 13  1  0  0  0  0
 12 14  1  0  0  0  0
 12 17  1  0  0  0  0
 12 18  1  0  0  0  0
 13 19  1  0  0  0  0
 14 20  1  0  0  0  0
 14 21  1  0  0  0  0
M  END
> <PUBCHEM_COMPOUND_CID>
47932

> <PUBCHEM_COMPOUND_CANONICALIZED>
1

> <PUBCHEM_CACTVS_COMPLEXITY>
132

> <PUBCHEM_CACTVS_HBOND_ACCEPTOR>
4

> <PUBCHEM_CACTVS_HBOND_DONOR>
5

> <PUBCHEM_CACTVS_ROTATABLE_BOND>
3

> <PUBCHEM_CACTVS_SUBSKEYS>
AAADccBzMAAGAAAAAAAAAAAAAAAAAAAAAAAwAAAAAAAAAAABAAAAHgAQCAAACAyhkAIwxoBABgCAACRCQACCCAAgIgAIiAAHbIgPNiKE8duDOCDk0BEL6AewQAAAAEAAAAQAEAAAgAAACAAgAAAAAAAAAA==

> <PUBCHEM_IUPAC_OPENEYE_NAME>
2-(2,4-diaminophenoxy)ethanol;dihydrochloride

> <PUBCHEM_IUPAC_CAS_NAME>
2-(2,4-diaminophenoxy)ethanol;dihydrochloride

> <PUBCHEM_IUPAC_NAME_MARKUP>
2-(2,4-diaminophenoxy)ethanol;dihydrochloride

> <PUBCHEM_IUPAC_NAME>
2-(2,4-diaminophenoxy)ethanol;dihydrochloride

> <PUBCHEM_IUPAC_SYSTEMATIC_NAME>
2-[2,4-bis(azanyl)phenoxy]ethanol;dihydrochloride

> <PUBCHEM_IUPAC_TRADITIONAL_NAME>
2-(2,4-diaminophenoxy)ethanol;dihydrochloride

> <PUBCHEM_IUPAC_INCHI>
InChI=1S/C8H12N2O2.2ClH/c9-6-1-2-8(7(10)5-6)12-4-3-11;;/h1-2,5,11H,3-4,9-10H2;2*1H

> <PUBCHEM_IUPAC_INCHIKEY>
VXYWXJXCQSDNHX-UHFFFAOYSA-N

> <PUBCHEM_EXACT_MASS>
240.0432331

> <PUBCHEM_MOLECULAR_FORMULA>
C8H14Cl2N2O2

> <PUBCHEM_MOLECULAR_WEIGHT>
241.11

> <PUBCHEM_SMILES>
C1=CC(=C(C=C1N)N)OCCO.Cl.Cl

> <PUBCHEM_OPENEYE_CAN_SMILES>
C1=CC(=C(C=C1N)N)OCCO.Cl.Cl

> <PUBCHEM_OPENEYE_ISO_SMILES>
C1=CC(=C(C=C1N)N)OCCO.Cl.Cl

> <PUBCHEM_CACTVS_TPSA>
81.5

> <PUBCHEM_MONOISOTOPIC_WEIGHT>
240.0432331

> <PUBCHEM_TOTAL_CHARGE>
0

> <PUBCHEM_HEAVY_ATOM_COUNT>
14

> <PUBCHEM_ATOM_DEF_STEREO_COUNT>
0

> <PUBCHEM_ATOM_UDEF_STEREO_COUNT>
0

> <PUBCHEM_BOND_DEF_STEREO_COUNT>
0

> <PUBCHEM_BOND_UDEF_STEREO_COUNT>
0

> <PUBCHEM_ISOTOPIC_ATOM_COUNT>
0

> <PUBCHEM_COMPONENT_COUNT>
3

> <PUBCHEM_CACTVS_TAUTO_COUNT>
-1

> <PUBCHEM_COORDINATE_TYPE>
1
5
255

> <PUBCHEM_BONDANNOTATIONS>
10  11  8
11  13  8
7  8  8
7  9  8
8  10  8
9  13  8

$$$$
