5271565
  -OEChem-04042512232D

 18 17  0     0  0  0  0  0  0999 V2000
    6.3301   -0.8100    0.0000 O   0  0  0  0  0  0  0  0  0  0  0  0
    2.8660    1.1900    0.0000 O   0  0  0  0  0  0  0  0  0  0  0  0
    4.5981   -0.8100    0.0000 O   0  0  0  0  0  0  0  0  0  0  0  0
    3.7320   -0.3100    0.0000 O   0  0  0  0  0  0  0  0  0  0  0  0
    5.4641    0.6900    0.0000 C   0  0  0  0  0  0  0  0  0  0  0  0
    4.5981    1.1900    0.0000 C   0  0  0  0  0  0  0  0  0  0  0  0
    5.4641   -0.3100    0.0000 C   0  0  0  0  0  0  0  0  0  0  0  0
    3.7320    0.6900    0.0000 C   0  0  0  0  0  0  0  0  0  0  0  0
    6.3301   -1.8100    0.0000 C   0  0  0  0  0  0  0  0  0  0  0  0
    2.0000    0.6900    0.0000 C   0  0  0  0  0  0  0  0  0  0  0  0
    6.0010    1.0000    0.0000 H   0  0  0  0  0  0  0  0  0  0  0  0
    4.5981    1.8100    0.0000 H   0  0  0  0  0  0  0  0  0  0  0  0
    5.7101   -1.8100    0.0000 H   0  0  0  0  0  0  0  0  0  0  0  0
    6.3301   -2.4300    0.0000 H   0  0  0  0  0  0  0  0  0  0  0  0
    6.9501   -1.8100    0.0000 H   0  0  0  0  0  0  0  0  0  0  0  0
    1.6900    1.2269    0.0000 H   0  0  0  0  0  0  0  0  0  0  0  0
    1.4631    0.3800    0.0000 H   0  0  0  0  0  0  0  0  0  0  0  0
    2.3100    0.1531    0.0000 H   0  0  0  0  0  0  0  0  0  0  0  0
  1  7  1  0  0  0  0
  1  9  1  0  0  0  0
  2  8  1  0  0  0  0
  2 10  1  0  0  0  0
  3  7  2  0  0  0  0
  4  8  2  0  0  0  0
  5  6  2  0  0  0  0
  5  7  1  0  0  0  0
  5 11  1  0  0  0  0
  6  8  1  0  0  0  0
  6 12  1  0  0  0  0
  9 13  1  0  0  0  0
  9 14  1  0  0  0  0
  9 15  1  0  0  0  0
 10 16  1  0  0  0  0
 10 17  1  0  0  0  0
 10 18  1  0  0  0  0
M  END
> <PUBCHEM_COMPOUND_CID>
5271565

> <PUBCHEM_COMPOUND_CANONICALIZED>
1

> <PUBCHEM_CACTVS_COMPLEXITY>
141

> <PUBCHEM_CACTVS_HBOND_ACCEPTOR>
4

> <PUBCHEM_CACTVS_HBOND_DONOR>
0

> <PUBCHEM_CACTVS_ROTATABLE_BOND>
4

> <PUBCHEM_CACTVS_SUBSKEYS>
AAADccBgOAAAAAAAAAAAAAAAAAAAAAAAAAAAAAAAAAAAAAAAAAAAGgAAAAAACACAgAICCAAABACIACDSCAAAAAAAAAAICAAAAEAABAAAIAAAEAAAAAAAIYAAAAAAAAAAAAAAAAAAAAAAAAAAAAAAAAAAAA==

> <PUBCHEM_IUPAC_OPENEYE_NAME>
dimethyl (Z)-but-2-enedioate

> <PUBCHEM_IUPAC_CAS_NAME>
(Z)-2-butenedioic acid dimethyl ester

> <PUBCHEM_IUPAC_NAME_MARKUP>
dimethyl (<I>Z</I>)-but-2-enedioate

> <PUBCHEM_IUPAC_NAME>
dimethyl (Z)-but-2-enedioate

> <PUBCHEM_IUPAC_SYSTEMATIC_NAME>
dimethyl (Z)-but-2-enedioate

> <PUBCHEM_IUPAC_TRADITIONAL_NAME>
(Z)-but-2-enedioic acid dimethyl ester

> <PUBCHEM_IUPAC_INCHI>
InChI=1S/C6H8O4/c1-9-5(7)3-4-6(8)10-2/h3-4H,1-2H3/b4-3-

> <PUBCHEM_IUPAC_INCHIKEY>
LDCRTTXIJACKKU-ARJAWSKDSA-N

> <PUBCHEM_XLOGP3>
0.7

> <PUBCHEM_EXACT_MASS>
144.04225873

> <PUBCHEM_MOLECULAR_FORMULA>
C6H8O4

> <PUBCHEM_MOLECULAR_WEIGHT>
144.12

> <PUBCHEM_SMILES>
COC(=O)/C=C\C(=O)OC

> <PUBCHEM_OPENEYE_CAN_SMILES>
COC(=O)C=CC(=O)OC

> <PUBCHEM_OPENEYE_ISO_SMILES>
COC(=O)/C=C\C(=O)OC

> <PUBCHEM_CACTVS_TPSA>
52.6

> <PUBCHEM_MONOISOTOPIC_WEIGHT>
144.04225873

> <PUBCHEM_TOTAL_CHARGE>
0

> <PUBCHEM_HEAVY_ATOM_COUNT>
10

> <PUBCHEM_ATOM_DEF_STEREO_COUNT>
0

> <PUBCHEM_ATOM_UDEF_STEREO_COUNT>
0

> <PUBCHEM_BOND_DEF_STEREO_COUNT>
1

> <PUBCHEM_BOND_UDEF_STEREO_COUNT>
0

> <PUBCHEM_ISOTOPIC_ATOM_COUNT>
0

> <PUBCHEM_COMPONENT_COUNT>
1

> <PUBCHEM_CACTVS_TAUTO_COUNT>
-1

> <PUBCHEM_COORDINATE_TYPE>
1
5
255

$$$$
