53421640
  -OEChem-04042505342D

 60 60  0     0  0  0  0  0  0999 V2000
    7.1962   -3.0670    0.0000 O   0  0  0  0  0  0  0  0  0  0  0  0
    3.7320   -0.0670    0.0000 O   0  0  0  0  0  0  0  0  0  0  0  0
    8.0622    1.4330    0.0000 O   0  0  0  0  0  0  0  0  0  0  0  0
    8.0622   -1.5670    0.0000 N   0  0  0  0  0  0  0  0  0  0  0  0
    4.5981   -1.5670    0.0000 N   0  0  0  0  0  0  0  0  0  0  0  0
    6.3301    1.4330    0.0000 N   0  0  0  0  0  0  0  0  0  0  0  0
    8.9282   -3.0670    0.0000 C   0  0  0  0  0  0  0  0  0  0  0  0
    2.8660   -1.5670    0.0000 C   0  0  0  0  0  0  0  0  0  0  0  0
    7.1962    2.9330    0.0000 C   0  0  0  0  0  0  0  0  0  0  0  0
    8.0622   -2.5670    0.0000 C   0  0  0  0  0  0  0  0  0  0  0  0
    3.7320   -1.0670    0.0000 C   0  0  0  0  0  0  0  0  0  0  0  0
    7.1962    1.9330    0.0000 C   0  0  0  0  0  0  0  0  0  0  0  0
    9.7942   -3.5670    0.0000 C   0  0  0  0  0  0  0  0  0  0  0  0
    8.4282   -3.9330    0.0000 C   0  0  0  0  0  0  0  0  0  0  0  0
    9.4282   -2.2010    0.0000 C   0  0  0  0  0  0  0  0  0  0  0  0
    2.0000   -2.0670    0.0000 C   0  0  0  0  0  0  0  0  0  0  0  0
    2.3660   -0.7010    0.0000 C   0  0  0  0  0  0  0  0  0  0  0  0
    3.3660   -2.4330    0.0000 C   0  0  0  0  0  0  0  0  0  0  0  0
    7.1962    3.9330    0.0000 C   0  0  0  0  0  0  0  0  0  0  0  0
    8.1962    2.9330    0.0000 C   0  0  0  0  0  0  0  0  0  0  0  0
    6.1962    2.9330    0.0000 C   0  0  0  0  0  0  0  0  0  0  0  0
    7.1962   -1.0670    0.0000 C   0  0  0  0  0  0  0  0  0  0  0  0
    5.4641   -1.0670    0.0000 C   0  0  0  0  0  0  0  0  0  0  0  0
    6.3301    0.4330    0.0000 C   0  0  0  0  0  0  0  0  0  0  0  0
    6.3301   -1.5670    0.0000 C   0  0  0  0  0  0  0  0  0  0  0  0
    7.1962   -0.0670    0.0000 C   0  0  0  0  0  0  0  0  0  0  0  0
    5.4641   -0.0670    0.0000 C   0  0  0  0  0  0  0  0  0  0  0  0
    9.4842   -4.1039    0.0000 H   0  0  0  0  0  0  0  0  0  0  0  0
   10.3312   -3.8770    0.0000 H   0  0  0  0  0  0  0  0  0  0  0  0
   10.1042   -3.0300    0.0000 H   0  0  0  0  0  0  0  0  0  0  0  0
    7.8913   -3.6230    0.0000 H   0  0  0  0  0  0  0  0  0  0  0  0
    8.1182   -4.4700    0.0000 H   0  0  0  0  0  0  0  0  0  0  0  0
    8.9651   -4.2430    0.0000 H   0  0  0  0  0  0  0  0  0  0  0  0
    9.9651   -2.5110    0.0000 H   0  0  0  0  0  0  0  0  0  0  0  0
    9.7382   -1.6640    0.0000 H   0  0  0  0  0  0  0  0  0  0  0  0
    8.8913   -1.8910    0.0000 H   0  0  0  0  0  0  0  0  0  0  0  0
    1.6900   -1.5300    0.0000 H   0  0  0  0  0  0  0  0  0  0  0  0
    1.4631   -2.3770    0.0000 H   0  0  0  0  0  0  0  0  0  0  0  0
    2.3100   -2.6039    0.0000 H   0  0  0  0  0  0  0  0  0  0  0  0
    2.9030   -0.3910    0.0000 H   0  0  0  0  0  0  0  0  0  0  0  0
    2.0560   -0.1640    0.0000 H   0  0  0  0  0  0  0  0  0  0  0  0
    1.8291   -1.0110    0.0000 H   0  0  0  0  0  0  0  0  0  0  0  0
    2.8291   -2.7430    0.0000 H   0  0  0  0  0  0  0  0  0  0  0  0
    3.6760   -2.9700    0.0000 H   0  0  0  0  0  0  0  0  0  0  0  0
    3.9030   -2.1230    0.0000 H   0  0  0  0  0  0  0  0  0  0  0  0
    7.8162    3.9330    0.0000 H   0  0  0  0  0  0  0  0  0  0  0  0
    7.1962    4.5530    0.0000 H   0  0  0  0  0  0  0  0  0  0  0  0
    6.5762    3.9330    0.0000 H   0  0  0  0  0  0  0  0  0  0  0  0
    8.1962    2.3130    0.0000 H   0  0  0  0  0  0  0  0  0  0  0  0
    8.8162    2.9330    0.0000 H   0  0  0  0  0  0  0  0  0  0  0  0
    8.1962    3.5530    0.0000 H   0  0  0  0  0  0  0  0  0  0  0  0
    6.1962    3.5530    0.0000 H   0  0  0  0  0  0  0  0  0  0  0  0
    5.5762    2.9330    0.0000 H   0  0  0  0  0  0  0  0  0  0  0  0
    6.1962    2.3130    0.0000 H   0  0  0  0  0  0  0  0  0  0  0  0
    8.5991   -1.2570    0.0000 H   0  0  0  0  0  0  0  0  0  0  0  0
    4.5981   -2.1870    0.0000 H   0  0  0  0  0  0  0  0  0  0  0  0
    5.7932    1.7430    0.0000 H   0  0  0  0  0  0  0  0  0  0  0  0
    6.3301   -2.1870    0.0000 H   0  0  0  0  0  0  0  0  0  0  0  0
    7.7331    0.2430    0.0000 H   0  0  0  0  0  0  0  0  0  0  0  0
    4.9272    0.2430    0.0000 H   0  0  0  0  0  0  0  0  0  0  0  0
  1 10  2  0  0  0  0
  2 11  2  0  0  0  0
  3 12  2  0  0  0  0
  4 10  1  0  0  0  0
  4 22  1  0  0  0  0
  4 55  1  0  0  0  0
  5 11  1  0  0  0  0
  5 23  1  0  0  0  0
  5 56  1  0  0  0  0
  6 12  1  0  0  0  0
  6 24  1  0  0  0  0
  6 57  1  0  0  0  0
  7 10  1  0  0  0  0
  7 13  1  0  0  0  0
  7 14  1  0  0  0  0
  7 15  1  0  0  0  0
  8 11  1  0  0  0  0
  8 16  1  0  0  0  0
  8 17  1  0  0  0  0
  8 18  1  0  0  0  0
  9 12  1  0  0  0  0
  9 19  1  0  0  0  0
  9 20  1  0  0  0  0
  9 21  1  0  0  0  0
 13 28  1  0  0  0  0
 13 29  1  0  0  0  0
 13 30  1  0  0  0  0
 14 31  1  0  0  0  0
 14 32  1  0  0  0  0
 14 33  1  0  0  0  0
 15 34  1  0  0  0  0
 15 35  1  0  0  0  0
 15 36  1  0  0  0  0
 16 37  1  0  0  0  0
 16 38  1  0  0  0  0
 16 39  1  0  0  0  0
 17 40  1  0  0  0  0
 17 41  1  0  0  0  0
 17 42  1  0  0  0  0
 18 43  1  0  0  0  0
 18 44  1  0  0  0  0
 18 45  1  0  0  0  0
 19 46  1  0  0  0  0
 19 47  1  0  0  0  0
 19 48  1  0  0  0  0
 20 49  1  0  0  0  0
 20 50  1  0  0  0  0
 20 51  1  0  0  0  0
 21 52  1  0  0  0  0
 21 53  1  0  0  0  0
 21 54  1  0  0  0  0
 22 25  2  0  0  0  0
 22 26  1  0  0  0  0
 23 25  1  0  0  0  0
 23 27  2  0  0  0  0
 24 26  2  0  0  0  0
 24 27  1  0  0  0  0
 25 58  1  0  0  0  0
 26 59  1  0  0  0  0
 27 60  1  0  0  0  0
M  END
> <PUBCHEM_COMPOUND_CID>
53421640

> <PUBCHEM_COMPOUND_CANONICALIZED>
1

> <PUBCHEM_CACTVS_COMPLEXITY>
472

> <PUBCHEM_CACTVS_HBOND_ACCEPTOR>
3

> <PUBCHEM_CACTVS_HBOND_DONOR>
3

> <PUBCHEM_CACTVS_ROTATABLE_BOND>
6

> <PUBCHEM_CACTVS_SUBSKEYS>
AAADcfB7MAAAAAAAAAAAAAAAAAAAAAAAAAAwAAAAAAAAAAABAAAAHgAQAAAADgiBkAAywILAAACIACVSUACCAAAhAgAAiAEAZIgIICLA0dGEIAhglADIyAcQAAAAAAAAAAQAAAAAAAAACAAAAAAAAAAAAA==

> <PUBCHEM_IUPAC_OPENEYE_NAME>
N-[3,5-bis(2,2-dimethylpropanoylamino)phenyl]-2,2-dimethyl-propanamide

> <PUBCHEM_IUPAC_CAS_NAME>
N-[3,5-bis[(2,2-dimethyl-1-oxopropyl)amino]phenyl]-2,2-dimethylpropanamide

> <PUBCHEM_IUPAC_NAME_MARKUP>
<I>N</I>-[3,5-bis(2,2-dimethylpropanoylamino)phenyl]-2,2-dimethylpropanamide

> <PUBCHEM_IUPAC_NAME>
N-[3,5-bis(2,2-dimethylpropanoylamino)phenyl]-2,2-dimethylpropanamide

> <PUBCHEM_IUPAC_SYSTEMATIC_NAME>
N-[3,5-bis(2,2-dimethylpropanoylamino)phenyl]-2,2-dimethyl-propanamide

> <PUBCHEM_IUPAC_TRADITIONAL_NAME>
N-[3,5-bis(pivaloylamino)phenyl]-2,2-dimethyl-propionamide

> <PUBCHEM_IUPAC_INCHI>
InChI=1S/C21H33N3O3/c1-19(2,3)16(25)22-13-10-14(23-17(26)20(4,5)6)12-15(11-13)24-18(27)21(7,8)9/h10-12H,1-9H3,(H,22,25)(H,23,26)(H,24,27)

> <PUBCHEM_IUPAC_INCHIKEY>
CPEULHAPWXMDDV-UHFFFAOYSA-N

> <PUBCHEM_XLOGP3_AA>
3.7

> <PUBCHEM_EXACT_MASS>
375.25219192

> <PUBCHEM_MOLECULAR_FORMULA>
C21H33N3O3

> <PUBCHEM_MOLECULAR_WEIGHT>
375.5

> <PUBCHEM_SMILES>
CC(C)(C)C(=O)NC1=CC(=CC(=C1)NC(=O)C(C)(C)C)NC(=O)C(C)(C)C

> <PUBCHEM_OPENEYE_CAN_SMILES>
CC(C)(C)C(=O)NC1=CC(=CC(=C1)NC(=O)C(C)(C)C)NC(=O)C(C)(C)C

> <PUBCHEM_OPENEYE_ISO_SMILES>
CC(C)(C)C(=O)NC1=CC(=CC(=C1)NC(=O)C(C)(C)C)NC(=O)C(C)(C)C

> <PUBCHEM_CACTVS_TPSA>
87.3

> <PUBCHEM_MONOISOTOPIC_WEIGHT>
375.25219192

> <PUBCHEM_TOTAL_CHARGE>
0

> <PUBCHEM_HEAVY_ATOM_COUNT>
27

> <PUBCHEM_ATOM_DEF_STEREO_COUNT>
0

> <PUBCHEM_ATOM_UDEF_STEREO_COUNT>
0

> <PUBCHEM_BOND_DEF_STEREO_COUNT>
0

> <PUBCHEM_BOND_UDEF_STEREO_COUNT>
0

> <PUBCHEM_ISOTOPIC_ATOM_COUNT>
0

> <PUBCHEM_COMPONENT_COUNT>
1

> <PUBCHEM_CACTVS_TAUTO_COUNT>
-1

> <PUBCHEM_COORDINATE_TYPE>
1
5
255

> <PUBCHEM_BONDANNOTATIONS>
22  25  8
22  26  8
23  25  8
23  27  8
24  26  8
24  27  8

$$$$
