53430864
  -OEChem-04042505442D

 37 37  0     0  0  0  0  0  0999 V2000
    4.4633    3.5597    0.0000 S   0  0  0  0  0  0  0  0  0  0  0  0
    2.2704    2.2936    0.0000 S   0  0  0  0  0  0  0  0  0  0  0  0
    5.4030    3.2177    0.0000 O   0  0  0  0  0  0  0  0  0  0  0  0
    3.5236    3.9017    0.0000 O   0  0  0  0  0  0  0  0  0  0  0  0
    2.0967    1.3089    0.0000 O   0  0  0  0  0  0  0  0  0  0  0  0
    2.4441    3.2785    0.0000 O   0  0  0  0  0  0  0  0  0  0  0  0
    3.3714    9.4614    0.0000 O   0  0  0  0  0  0  0  0  0  0  0  0
    1.2856    2.4673    0.0000 N   0  0  0  0  0  0  0  0  0  0  0  0
    0.6428    1.7012    0.0000 N   0  3  0  0  0  0  0  0  0  0  0  0
    0.0000    0.9353    0.0000 N   0  5  0  0  0  0  0  0  0  0  0  0
    4.2374    9.9614    0.0000 N   0  0  0  0  0  0  0  0  0  0  0  0
    2.5053    9.9614    0.0000 N   0  0  0  0  0  0  0  0  0  0  0  0
    5.1034    9.4614    0.0000 N   0  3  0  0  0  0  0  0  0  0  0  0
    1.6393    9.4614    0.0000 N   0  3  0  0  0  0  0  0  0  0  0  0
    5.9694    8.9614    0.0000 N   0  5  0  0  0  0  0  0  0  0  0  0
    0.7733    8.9614    0.0000 N   0  5  0  0  0  0  0  0  0  0  0  0
    4.1212    2.6200    0.0000 C   0  0  0  0  0  0  0  0  0  0  0  0
    3.2552    2.1200    0.0000 C   0  0  0  0  0  0  0  0  0  0  0  0
    4.8053    4.4994    0.0000 C   0  0  0  0  0  0  0  0  0  0  0  0
    4.9873    2.1200    0.0000 C   0  0  0  0  0  0  0  0  0  0  0  0
    3.2552    1.1200    0.0000 C   0  0  0  0  0  0  0  0  0  0  0  0
    4.9873    1.1200    0.0000 C   0  0  0  0  0  0  0  0  0  0  0  0
    5.7901    4.6730    0.0000 C   0  0  0  0  0  0  0  0  0  0  0  0
    4.1625    5.2654    0.0000 C   0  0  0  0  0  0  0  0  0  0  0  0
    4.1212    0.6200    0.0000 C   0  0  0  0  0  0  0  0  0  0  0  0
    6.1321    5.6127    0.0000 C   0  0  0  0  0  0  0  0  0  0  0  0
    4.5045    6.2051    0.0000 C   0  0  0  0  0  0  0  0  0  0  0  0
    5.4893    6.3788    0.0000 C   0  0  0  0  0  0  0  0  0  0  0  0
    5.5242    2.4300    0.0000 H   0  0  0  0  0  0  0  0  0  0  0  0
    2.7183    0.8100    0.0000 H   0  0  0  0  0  0  0  0  0  0  0  0
    5.5242    0.8100    0.0000 H   0  0  0  0  0  0  0  0  0  0  0  0
    6.1886    4.1981    0.0000 H   0  0  0  0  0  0  0  0  0  0  0  0
    3.5519    5.1578    0.0000 H   0  0  0  0  0  0  0  0  0  0  0  0
    4.1212    0.0000    0.0000 H   0  0  0  0  0  0  0  0  0  0  0  0
    6.7427    5.7204    0.0000 H   0  0  0  0  0  0  0  0  0  0  0  0
    4.1060    6.6801    0.0000 H   0  0  0  0  0  0  0  0  0  0  0  0
    5.7014    6.9614    0.0000 H   0  0  0  0  0  0  0  0  0  0  0  0
  1  3  2  0  0  0  0
  1  4  2  0  0  0  0
  1 17  1  0  0  0  0
  1 19  1  0  0  0  0
  2  5  2  0  0  0  0
  2  6  2  0  0  0  0
  2  8  1  0  0  0  0
  2 18  1  0  0  0  0
  7 11  1  0  0  0  0
  7 12  1  0  0  0  0
  8  9  2  0  0  0  0
  9 10  2  0  0  0  0
 11 13  2  0  0  0  0
 12 14  2  0  0  0  0
 13 15  2  0  0  0  0
 14 16  2  0  0  0  0
 17 18  1  0  0  0  0
 17 20  2  0  0  0  0
 18 21  2  0  0  0  0
 19 23  2  0  0  0  0
 19 24  1  0  0  0  0
 20 22  1  0  0  0  0
 20 29  1  0  0  0  0
 21 25  1  0  0  0  0
 21 30  1  0  0  0  0
 22 25  2  0  0  0  0
 22 31  1  0  0  0  0
 23 26  1  0  0  0  0
 23 32  1  0  0  0  0
 24 27  2  0  0  0  0
 24 33  1  0  0  0  0
 25 34  1  0  0  0  0
 26 28  2  0  0  0  0
 26 35  1  0  0  0  0
 27 28  1  0  0  0  0
 27 36  1  0  0  0  0
 28 37  1  0  0  0  0
M  CHG  6   9   1  10  -1  13   1  14   1  15  -1  16  -1
M  END
> <PUBCHEM_COMPOUND_CID>
53430864

> <PUBCHEM_COMPOUND_CANONICALIZED>
1

> <PUBCHEM_CACTVS_COMPLEXITY>
713

> <PUBCHEM_CACTVS_HBOND_ACCEPTOR>
11

> <PUBCHEM_CACTVS_HBOND_DONOR>
0

> <PUBCHEM_CACTVS_ROTATABLE_BOND>
6

> <PUBCHEM_CACTVS_SUBSKEYS>
AAADccBz+ABgAAAAAAAAAAAAAAAAAAAAAAAwYAAAAAAAAAABQAAAGAQMQAAACACAUAAwAYAAAAqCACBCAHBCABAgCBAIiBgAAIgIICKgERCAIAAggAAoiAcAAAAAAAAAAAAAAgAAAAAAAAAEAAAAAAAAAA==

> <PUBCHEM_IUPAC_INCHI>
InChI=1S/C12H9N3O4S2.N6O/c13-14-15-21(18,19)12-9-5-4-8-11(12)20(16,17)10-6-2-1-3-7-10;1-3-5-7-6-4-2/h1-9H;

> <PUBCHEM_IUPAC_INCHIKEY>
CDCDGSIRMOENLI-UHFFFAOYSA-N

> <PUBCHEM_EXACT_MASS>
423.01680677

> <PUBCHEM_MOLECULAR_FORMULA>
C12H9N9O5S2

> <PUBCHEM_MOLECULAR_WEIGHT>
423.4

> <PUBCHEM_SMILES>
C1=CC=C(C=C1)S(=O)(=O)C2=CC=CC=C2S(=O)(=O)N=[N+]=[N-].[N-]=[N+]=NON=[N+]=[N-]

> <PUBCHEM_OPENEYE_CAN_SMILES>
C1=CC=C(C=C1)S(=O)(=O)C2=CC=CC=C2S(=O)(=O)N=[N+]=[N-].[N-]=[N+]=NON=[N+]=[N-]

> <PUBCHEM_OPENEYE_ISO_SMILES>
C1=CC=C(C=C1)S(=O)(=O)C2=CC=CC=C2S(=O)(=O)N=[N+]=[N-].[N-]=[N+]=NON=[N+]=[N-]

> <PUBCHEM_CACTVS_TPSA>
137

> <PUBCHEM_MONOISOTOPIC_WEIGHT>
423.01680677

> <PUBCHEM_TOTAL_CHARGE>
0

> <PUBCHEM_HEAVY_ATOM_COUNT>
28

> <PUBCHEM_ATOM_DEF_STEREO_COUNT>
0

> <PUBCHEM_ATOM_UDEF_STEREO_COUNT>
0

> <PUBCHEM_BOND_DEF_STEREO_COUNT>
0

> <PUBCHEM_BOND_UDEF_STEREO_COUNT>
3

> <PUBCHEM_ISOTOPIC_ATOM_COUNT>
0

> <PUBCHEM_COMPONENT_COUNT>
2

> <PUBCHEM_CACTVS_TAUTO_COUNT>
-1

> <PUBCHEM_COORDINATE_TYPE>
1
5
255

> <PUBCHEM_BONDANNOTATIONS>
11  13  1
12  14  1
17  18  8
17  20  8
18  21  8
19  23  8
19  24  8
20  22  8
21  25  8
22  25  8
23  26  8
24  27  8
26  28  8
27  28  8
8  9  1

$$$$
