5362487
  -OEChem-04042513082D

  1  0  0     0  0  0  0  0  0999 V2000
    2.0000    0.0000    0.0000 S   0  0  0  0  0 15  0  0  0  0  0  0
M  END
> <PUBCHEM_COMPOUND_CID>
5362487

> <PUBCHEM_COMPOUND_CANONICALIZED>
1

> <PUBCHEM_CACTVS_COMPLEXITY>
0

> <PUBCHEM_CACTVS_HBOND_ACCEPTOR>
1

> <PUBCHEM_CACTVS_HBOND_DONOR>
0

> <PUBCHEM_CACTVS_ROTATABLE_BOND>
0

> <PUBCHEM_CACTVS_SUBSKEYS>
AAADcQAAAABAAAAAAAAAAAAAAAAAAAAAAAAAAAAAAAAAAAAAAAAAAAAAAAAAAAAAAAAAAAAAAAAAAAAAAAAAAAAAAAAAAAAAAAAAAAAAAAAAAAAAAAAAAAAAAAAAAAAAAAAAAAAAAAAAAAAAAAAAAAAAAA==

> <PUBCHEM_IUPAC_OPENEYE_NAME>
sulfur

> <PUBCHEM_IUPAC_CAS_NAME>
sulfur

> <PUBCHEM_IUPAC_NAME_MARKUP>
sulfur

> <PUBCHEM_IUPAC_NAME>
sulfur

> <PUBCHEM_IUPAC_SYSTEMATIC_NAME>
sulfur

> <PUBCHEM_IUPAC_TRADITIONAL_NAME>
sulfur

> <PUBCHEM_IUPAC_INCHI>
InChI=1S/S

> <PUBCHEM_IUPAC_INCHIKEY>
NINIDFKCEFEMDL-UHFFFAOYSA-N

> <PUBCHEM_XLOGP3_AA>
0.5

> <PUBCHEM_EXACT_MASS>
31.97207117

> <PUBCHEM_MOLECULAR_FORMULA>
S

> <PUBCHEM_MOLECULAR_WEIGHT>
32.07

> <PUBCHEM_SMILES>
[S]

> <PUBCHEM_OPENEYE_CAN_SMILES>
[S]

> <PUBCHEM_OPENEYE_ISO_SMILES>
[S]

> <PUBCHEM_CACTVS_TPSA>
1

> <PUBCHEM_MONOISOTOPIC_WEIGHT>
31.97207117

> <PUBCHEM_TOTAL_CHARGE>
0

> <PUBCHEM_HEAVY_ATOM_COUNT>
1

> <PUBCHEM_ATOM_DEF_STEREO_COUNT>
0

> <PUBCHEM_ATOM_UDEF_STEREO_COUNT>
0

> <PUBCHEM_BOND_DEF_STEREO_COUNT>
0

> <PUBCHEM_BOND_UDEF_STEREO_COUNT>
0

> <PUBCHEM_ISOTOPIC_ATOM_COUNT>
0

> <PUBCHEM_COMPONENT_COUNT>
1

> <PUBCHEM_CACTVS_TAUTO_COUNT>
-1

> <PUBCHEM_COORDINATE_TYPE>
1
5
255

$$$$
