54680660
  -OEChem-04042505462D

 67 67  0     1  0  0  0  0  0999 V2000
    5.0868   -3.2929    0.0000 O   0  0  0  0  0  0  0  0  0  0  0  0
    5.0298   -6.3807    0.0000 O   0  0  0  0  0  0  0  0  0  0  0  0
    3.3548   -4.2929    0.0000 O   0  0  0  0  0  0  0  0  0  0  0  0
    6.8189   -3.2929    0.0000 O   0  0  0  0  0  0  0  0  0  0  0  0
    2.4608   -6.0716    0.0000 O   0  0  0  0  0  0  0  0  0  0  0  0
    3.1330   -8.1407    0.0000 O   0  0  0  0  0  0  0  0  0  0  0  0
    5.3086   -8.1407    0.0000 O   0  0  0  0  0  0  0  0  0  0  0  0
    8.5510    2.7071    0.0000 C   0  0  0  0  0  0  0  0  0  0  0  0
    9.4170    3.2071    0.0000 C   0  0  0  0  0  0  0  0  0  0  0  0
    8.5510    1.7071    0.0000 C   0  0  0  0  0  0  0  0  0  0  0  0
    9.4170    4.2071    0.0000 C   0  0  0  0  0  0  0  0  0  0  0  0
    7.6849    1.2071    0.0000 C   0  0  0  0  0  0  0  0  0  0  0  0
   10.2830    4.7071    0.0000 C   0  0  0  0  0  0  0  0  0  0  0  0
    7.6849    0.2071    0.0000 C   0  0  0  0  0  0  0  0  0  0  0  0
   10.2830    5.7071    0.0000 C   0  0  0  0  0  0  0  0  0  0  0  0
    6.8189   -0.2929    0.0000 C   0  0  0  0  0  0  0  0  0  0  0  0
   11.1490    6.2071    0.0000 C   0  0  0  0  0  0  0  0  0  0  0  0
    6.8189   -1.2929    0.0000 C   0  0  0  0  0  0  0  0  0  0  0  0
   11.1490    7.2071    0.0000 C   0  0  0  0  0  0  0  0  0  0  0  0
    5.9529   -1.7929    0.0000 C   0  0  0  0  0  0  0  0  0  0  0  0
   12.0151    7.7071    0.0000 C   0  0  0  0  0  0  0  0  0  0  0  0
    4.2208   -4.7929    0.0000 C   0  0  2  0  0  0  0  0  0  0  0  0
    4.2208   -5.7929    0.0000 C   0  0  2  0  0  0  0  0  0  0  0  0
    5.9529   -2.7929    0.0000 C   0  0  0  0  0  0  0  0  0  0  0  0
    5.0868   -4.2929    0.0000 C   0  0  0  0  0  0  0  0  0  0  0  0
   12.0151    8.7071    0.0000 C   0  0  0  0  0  0  0  0  0  0  0  0
    3.4118   -6.3807    0.0000 C   0  0  0  0  0  0  0  0  0  0  0  0
    3.7208   -7.3317    0.0000 C   0  0  0  0  0  0  0  0  0  0  0  0
    4.7208   -7.3317    0.0000 C   0  0  0  0  0  0  0  0  0  0  0  0
    8.3389    3.2897    0.0000 H   0  0  0  0  0  0  0  0  0  0  0  0
    7.9404    2.5995    0.0000 H   0  0  0  0  0  0  0  0  0  0  0  0
    9.6290    2.6245    0.0000 H   0  0  0  0  0  0  0  0  0  0  0  0
   10.0276    3.3148    0.0000 H   0  0  0  0  0  0  0  0  0  0  0  0
    8.7630    1.1245    0.0000 H   0  0  0  0  0  0  0  0  0  0  0  0
    9.1615    1.8148    0.0000 H   0  0  0  0  0  0  0  0  0  0  0  0
    9.2049    4.7897    0.0000 H   0  0  0  0  0  0  0  0  0  0  0  0
    8.8064    4.0995    0.0000 H   0  0  0  0  0  0  0  0  0  0  0  0
    7.4729    1.7897    0.0000 H   0  0  0  0  0  0  0  0  0  0  0  0
    7.0743    1.0995    0.0000 H   0  0  0  0  0  0  0  0  0  0  0  0
   10.4951    4.1245    0.0000 H   0  0  0  0  0  0  0  0  0  0  0  0
   10.8936    4.8148    0.0000 H   0  0  0  0  0  0  0  0  0  0  0  0
    7.8970   -0.3755    0.0000 H   0  0  0  0  0  0  0  0  0  0  0  0
    8.2955    0.3148    0.0000 H   0  0  0  0  0  0  0  0  0  0  0  0
   10.0709    6.2897    0.0000 H   0  0  0  0  0  0  0  0  0  0  0  0
    9.6724    5.5995    0.0000 H   0  0  0  0  0  0  0  0  0  0  0  0
    6.6068    0.2897    0.0000 H   0  0  0  0  0  0  0  0  0  0  0  0
    6.2083   -0.4005    0.0000 H   0  0  0  0  0  0  0  0  0  0  0  0
   11.3611    5.6245    0.0000 H   0  0  0  0  0  0  0  0  0  0  0  0
   11.7596    6.3148    0.0000 H   0  0  0  0  0  0  0  0  0  0  0  0
    7.0310   -1.8755    0.0000 H   0  0  0  0  0  0  0  0  0  0  0  0
    7.4295   -1.1852    0.0000 H   0  0  0  0  0  0  0  0  0  0  0  0
   10.9370    7.7897    0.0000 H   0  0  0  0  0  0  0  0  0  0  0  0
   10.5384    7.0995    0.0000 H   0  0  0  0  0  0  0  0  0  0  0  0
    5.7408   -1.2103    0.0000 H   0  0  0  0  0  0  0  0  0  0  0  0
    5.3423   -1.9005    0.0000 H   0  0  0  0  0  0  0  0  0  0  0  0
   12.2271    7.1245    0.0000 H   0  0  0  0  0  0  0  0  0  0  0  0
   12.6256    7.8148    0.0000 H   0  0  0  0  0  0  0  0  0  0  0  0
    4.2208   -4.1729    0.0000 H   0  0  0  0  0  0  0  0  0  0  0  0
    4.9782   -5.4070    0.0000 H   0  0  0  0  0  0  0  0  0  0  0  0
    5.2989   -4.8755    0.0000 H   0  0  0  0  0  0  0  0  0  0  0  0
    5.6974   -4.1852    0.0000 H   0  0  0  0  0  0  0  0  0  0  0  0
   12.6351    8.7071    0.0000 H   0  0  0  0  0  0  0  0  0  0  0  0
   12.0151    9.3271    0.0000 H   0  0  0  0  0  0  0  0  0  0  0  0
   11.3951    8.7071    0.0000 H   0  0  0  0  0  0  0  0  0  0  0  0
    3.3548   -3.6729    0.0000 H   0  0  0  0  0  0  0  0  0  0  0  0
    2.0000   -6.4865    0.0000 H   0  0  0  0  0  0  0  0  0  0  0  0
    3.3852   -8.7071    0.0000 H   0  0  0  0  0  0  0  0  0  0  0  0
  1 24  1  0  0  0  0
  1 25  1  0  0  0  0
  2 23  1  0  0  0  0
  2 29  1  0  0  0  0
 22  3  1  1  0  0  0
  3 65  1  0  0  0  0
  4 24  2  0  0  0  0
  5 27  1  0  0  0  0
  5 66  1  0  0  0  0
  6 28  1  0  0  0  0
  6 67  1  0  0  0  0
  7 29  2  0  0  0  0
  8  9  1  0  0  0  0
  8 10  1  0  0  0  0
  8 30  1  0  0  0  0
  8 31  1  0  0  0  0
  9 11  1  0  0  0  0
  9 32  1  0  0  0  0
  9 33  1  0  0  0  0
 10 12  1  0  0  0  0
 10 34  1  0  0  0  0
 10 35  1  0  0  0  0
 11 13  1  0  0  0  0
 11 36  1  0  0  0  0
 11 37  1  0  0  0  0
 12 14  1  0  0  0  0
 12 38  1  0  0  0  0
 12 39  1  0  0  0  0
 13 15  1  0  0  0  0
 13 40  1  0  0  0  0
 13 41  1  0  0  0  0
 14 16  1  0  0  0  0
 14 42  1  0  0  0  0
 14 43  1  0  0  0  0
 15 17  1  0  0  0  0
 15 44  1  0  0  0  0
 15 45  1  0  0  0  0
 16 18  1  0  0  0  0
 16 46  1  0  0  0  0
 16 47  1  0  0  0  0
 17 19  1  0  0  0  0
 17 48  1  0  0  0  0
 17 49  1  0  0  0  0
 18 20  1  0  0  0  0
 18 50  1  0  0  0  0
 18 51  1  0  0  0  0
 19 21  1  0  0  0  0
 19 52  1  0  0  0  0
 19 53  1  0  0  0  0
 20 24  1  0  0  0  0
 20 54  1  0  0  0  0
 20 55  1  0  0  0  0
 21 26  1  0  0  0  0
 21 56  1  0  0  0  0
 21 57  1  0  0  0  0
 22 23  1  0  0  0  0
 22 25  1  0  0  0  0
 22 58  1  0  0  0  0
 23 27  1  0  0  0  0
 23 59  1  6  0  0  0
 25 60  1  0  0  0  0
 25 61  1  0  0  0  0
 26 62  1  0  0  0  0
 26 63  1  0  0  0  0
 26 64  1  0  0  0  0
 27 28  2  0  0  0  0
 28 29  1  0  0  0  0
M  END
> <PUBCHEM_COMPOUND_CID>
54680660

> <PUBCHEM_COMPOUND_CANONICALIZED>
1

> <PUBCHEM_CACTVS_COMPLEXITY>
515

> <PUBCHEM_CACTVS_HBOND_ACCEPTOR>
7

> <PUBCHEM_CACTVS_HBOND_DONOR>
3

> <PUBCHEM_CACTVS_ROTATABLE_BOND>
18

> <PUBCHEM_CACTVS_SUBSKEYS>
AAADcfB4OAAAAAAAAAAAAAAAAAAAAQAAAAAAAAAAAAAAAAAAAAAAGgAACAAACBSggAICCAAABgCIAADQCAIAAAAgIAAACAFAAEgBFBIAIAACUAAFwAALIQPIyKCAAAAAAAAAAAAAAAAAAAAAAAAAAAAAAA==

> <PUBCHEM_IUPAC_OPENEYE_NAME>
[(2S)-2-[(2R)-3,4-dihydroxy-5-oxo-2H-furan-2-yl]-2-hydroxy-ethyl] hexadecanoate

> <PUBCHEM_IUPAC_CAS_NAME>
hexadecanoic acid [(2S)-2-[(2R)-3,4-dihydroxy-5-oxo-2H-furan-2-yl]-2-hydroxyethyl] ester

> <PUBCHEM_IUPAC_NAME_MARKUP>
[(2<I>S</I>)-2-[(2<I>R</I>)-3,4-dihydroxy-5-oxo-2<I>H</I>-furan-2-yl]-2-hydroxyethyl] hexadecanoate

> <PUBCHEM_IUPAC_NAME>
[(2S)-2-[(2R)-3,4-dihydroxy-5-oxo-2H-furan-2-yl]-2-hydroxyethyl] hexadecanoate

> <PUBCHEM_IUPAC_SYSTEMATIC_NAME>
[(2S)-2-[(2R)-3,4-bis(oxidanyl)-5-oxidanylidene-2H-furan-2-yl]-2-oxidanyl-ethyl] hexadecanoate

> <PUBCHEM_IUPAC_TRADITIONAL_NAME>
palmitic acid [(2S)-2-[(2R)-3,4-dihydroxy-5-keto-2H-furan-2-yl]-2-hydroxy-ethyl] ester

> <PUBCHEM_IUPAC_INCHI>
InChI=1S/C22H38O7/c1-2-3-4-5-6-7-8-9-10-11-12-13-14-15-18(24)28-16-17(23)21-19(25)20(26)22(27)29-21/h17,21,23,25-26H,2-16H2,1H3/t17-,21+/m0/s1

> <PUBCHEM_IUPAC_INCHIKEY>
QAQJMLQRFWZOBN-LAUBAEHRSA-N

> <PUBCHEM_XLOGP3>
6.3

> <PUBCHEM_EXACT_MASS>
414.26175355

> <PUBCHEM_MOLECULAR_FORMULA>
C22H38O7

> <PUBCHEM_MOLECULAR_WEIGHT>
414.5

> <PUBCHEM_SMILES>
CCCCCCCCCCCCCCCC(=O)OC[C@@H]([C@@H]1C(=C(C(=O)O1)O)O)O

> <PUBCHEM_OPENEYE_CAN_SMILES>
CCCCCCCCCCCCCCCC(=O)OCC(C1C(=C(C(=O)O1)O)O)O

> <PUBCHEM_OPENEYE_ISO_SMILES>
CCCCCCCCCCCCCCCC(=O)OC[C@@H]([C@@H]1C(=C(C(=O)O1)O)O)O

> <PUBCHEM_CACTVS_TPSA>
113

> <PUBCHEM_MONOISOTOPIC_WEIGHT>
414.26175355

> <PUBCHEM_TOTAL_CHARGE>
0

> <PUBCHEM_HEAVY_ATOM_COUNT>
29

> <PUBCHEM_ATOM_DEF_STEREO_COUNT>
2

> <PUBCHEM_ATOM_UDEF_STEREO_COUNT>
0

> <PUBCHEM_BOND_DEF_STEREO_COUNT>
0

> <PUBCHEM_BOND_UDEF_STEREO_COUNT>
0

> <PUBCHEM_ISOTOPIC_ATOM_COUNT>
0

> <PUBCHEM_COMPONENT_COUNT>
1

> <PUBCHEM_CACTVS_TAUTO_COUNT>
-1

> <PUBCHEM_COORDINATE_TYPE>
1
5
255

> <PUBCHEM_BONDANNOTATIONS>
23  59  6
22  3  5

$$$$
