54725318
  -OEChem-04042505462D

 73 73  0     1  0  0  0  0  0999 V2000
    5.0868   -4.0429    0.0000 O   0  0  0  0  0  0  0  0  0  0  0  0
    5.0298   -7.1307    0.0000 O   0  0  0  0  0  0  0  0  0  0  0  0
    3.3548   -5.0429    0.0000 O   0  0  0  0  0  0  0  0  0  0  0  0
    6.8189   -4.0429    0.0000 O   0  0  0  0  0  0  0  0  0  0  0  0
    2.4608   -6.8216    0.0000 O   0  0  0  0  0  0  0  0  0  0  0  0
    3.1330   -8.8907    0.0000 O   0  0  0  0  0  0  0  0  0  0  0  0
    5.3086   -8.8907    0.0000 O   0  0  0  0  0  0  0  0  0  0  0  0
    9.4170    2.4571    0.0000 C   0  0  0  0  0  0  0  0  0  0  0  0
    9.4170    3.4571    0.0000 C   0  0  0  0  0  0  0  0  0  0  0  0
    8.5510    1.9571    0.0000 C   0  0  0  0  0  0  0  0  0  0  0  0
   10.2830    3.9571    0.0000 C   0  0  0  0  0  0  0  0  0  0  0  0
    8.5510    0.9571    0.0000 C   0  0  0  0  0  0  0  0  0  0  0  0
   10.2830    4.9571    0.0000 C   0  0  0  0  0  0  0  0  0  0  0  0
    7.6849    0.4571    0.0000 C   0  0  0  0  0  0  0  0  0  0  0  0
   11.1490    5.4571    0.0000 C   0  0  0  0  0  0  0  0  0  0  0  0
    7.6849   -0.5429    0.0000 C   0  0  0  0  0  0  0  0  0  0  0  0
   11.1490    6.4571    0.0000 C   0  0  0  0  0  0  0  0  0  0  0  0
    6.8189   -1.0429    0.0000 C   0  0  0  0  0  0  0  0  0  0  0  0
   12.0151    6.9571    0.0000 C   0  0  0  0  0  0  0  0  0  0  0  0
    6.8189   -2.0429    0.0000 C   0  0  0  0  0  0  0  0  0  0  0  0
   12.0151    7.9571    0.0000 C   0  0  0  0  0  0  0  0  0  0  0  0
    5.9529   -2.5429    0.0000 C   0  0  0  0  0  0  0  0  0  0  0  0
   12.8811    8.4571    0.0000 C   0  0  0  0  0  0  0  0  0  0  0  0
    4.2208   -5.5429    0.0000 C   0  0  2  0  0  0  0  0  0  0  0  0
    4.2208   -6.5429    0.0000 C   0  0  2  0  0  0  0  0  0  0  0  0
    5.9529   -3.5429    0.0000 C   0  0  0  0  0  0  0  0  0  0  0  0
   12.8811    9.4571    0.0000 C   0  0  0  0  0  0  0  0  0  0  0  0
    5.0868   -5.0429    0.0000 C   0  0  0  0  0  0  0  0  0  0  0  0
    3.4118   -7.1307    0.0000 C   0  0  0  0  0  0  0  0  0  0  0  0
    3.7208   -8.0817    0.0000 C   0  0  0  0  0  0  0  0  0  0  0  0
    4.7208   -8.0817    0.0000 C   0  0  0  0  0  0  0  0  0  0  0  0
    9.6290    1.8745    0.0000 H   0  0  0  0  0  0  0  0  0  0  0  0
   10.0276    2.5648    0.0000 H   0  0  0  0  0  0  0  0  0  0  0  0
    9.2049    4.0397    0.0000 H   0  0  0  0  0  0  0  0  0  0  0  0
    8.8064    3.3495    0.0000 H   0  0  0  0  0  0  0  0  0  0  0  0
    8.3389    2.5397    0.0000 H   0  0  0  0  0  0  0  0  0  0  0  0
    7.9404    1.8495    0.0000 H   0  0  0  0  0  0  0  0  0  0  0  0
   10.4951    3.3745    0.0000 H   0  0  0  0  0  0  0  0  0  0  0  0
   10.8936    4.0648    0.0000 H   0  0  0  0  0  0  0  0  0  0  0  0
    8.7630    0.3745    0.0000 H   0  0  0  0  0  0  0  0  0  0  0  0
    9.1615    1.0648    0.0000 H   0  0  0  0  0  0  0  0  0  0  0  0
   10.0709    5.5397    0.0000 H   0  0  0  0  0  0  0  0  0  0  0  0
    9.6724    4.8495    0.0000 H   0  0  0  0  0  0  0  0  0  0  0  0
    7.4729    1.0397    0.0000 H   0  0  0  0  0  0  0  0  0  0  0  0
    7.0743    0.3495    0.0000 H   0  0  0  0  0  0  0  0  0  0  0  0
   11.3611    4.8745    0.0000 H   0  0  0  0  0  0  0  0  0  0  0  0
   11.7596    5.5648    0.0000 H   0  0  0  0  0  0  0  0  0  0  0  0
    7.8970   -1.1255    0.0000 H   0  0  0  0  0  0  0  0  0  0  0  0
    8.2955   -0.4352    0.0000 H   0  0  0  0  0  0  0  0  0  0  0  0
   10.9370    7.0397    0.0000 H   0  0  0  0  0  0  0  0  0  0  0  0
   10.5384    6.3495    0.0000 H   0  0  0  0  0  0  0  0  0  0  0  0
    6.6068   -0.4603    0.0000 H   0  0  0  0  0  0  0  0  0  0  0  0
    6.2083   -1.1505    0.0000 H   0  0  0  0  0  0  0  0  0  0  0  0
   12.2271    6.3745    0.0000 H   0  0  0  0  0  0  0  0  0  0  0  0
   12.6256    7.0648    0.0000 H   0  0  0  0  0  0  0  0  0  0  0  0
    7.0310   -2.6255    0.0000 H   0  0  0  0  0  0  0  0  0  0  0  0
    7.4295   -1.9352    0.0000 H   0  0  0  0  0  0  0  0  0  0  0  0
   11.8030    8.5397    0.0000 H   0  0  0  0  0  0  0  0  0  0  0  0
   11.4045    7.8495    0.0000 H   0  0  0  0  0  0  0  0  0  0  0  0
    5.7408   -1.9603    0.0000 H   0  0  0  0  0  0  0  0  0  0  0  0
    5.3423   -2.6505    0.0000 H   0  0  0  0  0  0  0  0  0  0  0  0
   13.0931    7.8745    0.0000 H   0  0  0  0  0  0  0  0  0  0  0  0
   13.4917    8.5648    0.0000 H   0  0  0  0  0  0  0  0  0  0  0  0
    4.2208   -4.9229    0.0000 H   0  0  0  0  0  0  0  0  0  0  0  0
    4.9782   -6.1570    0.0000 H   0  0  0  0  0  0  0  0  0  0  0  0
   13.5011    9.4571    0.0000 H   0  0  0  0  0  0  0  0  0  0  0  0
   12.8811   10.0771    0.0000 H   0  0  0  0  0  0  0  0  0  0  0  0
   12.2611    9.4571    0.0000 H   0  0  0  0  0  0  0  0  0  0  0  0
    5.2989   -5.6255    0.0000 H   0  0  0  0  0  0  0  0  0  0  0  0
    5.6974   -4.9352    0.0000 H   0  0  0  0  0  0  0  0  0  0  0  0
    3.3548   -4.4229    0.0000 H   0  0  0  0  0  0  0  0  0  0  0  0
    2.0000   -7.2365    0.0000 H   0  0  0  0  0  0  0  0  0  0  0  0
    3.3852   -9.4571    0.0000 H   0  0  0  0  0  0  0  0  0  0  0  0
  1 26  1  0  0  0  0
  1 28  1  0  0  0  0
  2 25  1  0  0  0  0
  2 31  1  0  0  0  0
 24  3  1  1  0  0  0
  3 71  1  0  0  0  0
  4 26  2  0  0  0  0
  5 29  1  0  0  0  0
  5 72  1  0  0  0  0
  6 30  1  0  0  0  0
  6 73  1  0  0  0  0
  7 31  2  0  0  0  0
  8  9  1  0  0  0  0
  8 10  1  0  0  0  0
  8 32  1  0  0  0  0
  8 33  1  0  0  0  0
  9 11  1  0  0  0  0
  9 34  1  0  0  0  0
  9 35  1  0  0  0  0
 10 12  1  0  0  0  0
 10 36  1  0  0  0  0
 10 37  1  0  0  0  0
 11 13  1  0  0  0  0
 11 38  1  0  0  0  0
 11 39  1  0  0  0  0
 12 14  1  0  0  0  0
 12 40  1  0  0  0  0
 12 41  1  0  0  0  0
 13 15  1  0  0  0  0
 13 42  1  0  0  0  0
 13 43  1  0  0  0  0
 14 16  1  0  0  0  0
 14 44  1  0  0  0  0
 14 45  1  0  0  0  0
 15 17  1  0  0  0  0
 15 46  1  0  0  0  0
 15 47  1  0  0  0  0
 16 18  1  0  0  0  0
 16 48  1  0  0  0  0
 16 49  1  0  0  0  0
 17 19  1  0  0  0  0
 17 50  1  0  0  0  0
 17 51  1  0  0  0  0
 18 20  1  0  0  0  0
 18 52  1  0  0  0  0
 18 53  1  0  0  0  0
 19 21  1  0  0  0  0
 19 54  1  0  0  0  0
 19 55  1  0  0  0  0
 20 22  1  0  0  0  0
 20 56  1  0  0  0  0
 20 57  1  0  0  0  0
 21 23  1  0  0  0  0
 21 58  1  0  0  0  0
 21 59  1  0  0  0  0
 22 26  1  0  0  0  0
 22 60  1  0  0  0  0
 22 61  1  0  0  0  0
 23 27  1  0  0  0  0
 23 62  1  0  0  0  0
 23 63  1  0  0  0  0
 24 25  1  0  0  0  0
 24 28  1  0  0  0  0
 24 64  1  0  0  0  0
 25 29  1  0  0  0  0
 25 65  1  6  0  0  0
 27 66  1  0  0  0  0
 27 67  1  0  0  0  0
 27 68  1  0  0  0  0
 28 69  1  0  0  0  0
 28 70  1  0  0  0  0
 29 30  2  0  0  0  0
 30 31  1  0  0  0  0
M  END
> <PUBCHEM_COMPOUND_CID>
54725318

> <PUBCHEM_COMPOUND_CANONICALIZED>
1

> <PUBCHEM_CACTVS_COMPLEXITY>
544

> <PUBCHEM_CACTVS_HBOND_ACCEPTOR>
7

> <PUBCHEM_CACTVS_HBOND_DONOR>
3

> <PUBCHEM_CACTVS_ROTATABLE_BOND>
20

> <PUBCHEM_CACTVS_SUBSKEYS>
AAADcfB4OAAAAAAAAAAAAAAAAAAAAQAAAAAAAAAAAAAAAAAAAAAAGgAACAAACBSggAICCAAABgCIAADQCAIAAAAgIAAACAFAAEgBFBIAIAACUAAFwAALIQPIyKCAAAAAAAAAAAAAAAAAAAAAAAAAAAAAAA==

> <PUBCHEM_IUPAC_OPENEYE_NAME>
[(2S)-2-[(2R)-3,4-dihydroxy-5-oxo-2H-furan-2-yl]-2-hydroxy-ethyl] octadecanoate

> <PUBCHEM_IUPAC_CAS_NAME>
octadecanoic acid [(2S)-2-[(2R)-3,4-dihydroxy-5-oxo-2H-furan-2-yl]-2-hydroxyethyl] ester

> <PUBCHEM_IUPAC_NAME_MARKUP>
[(2<I>S</I>)-2-[(2<I>R</I>)-3,4-dihydroxy-5-oxo-2<I>H</I>-furan-2-yl]-2-hydroxyethyl] octadecanoate

> <PUBCHEM_IUPAC_NAME>
[(2S)-2-[(2R)-3,4-dihydroxy-5-oxo-2H-furan-2-yl]-2-hydroxyethyl] octadecanoate

> <PUBCHEM_IUPAC_SYSTEMATIC_NAME>
[(2S)-2-[(2R)-3,4-bis(oxidanyl)-5-oxidanylidene-2H-furan-2-yl]-2-oxidanyl-ethyl] octadecanoate

> <PUBCHEM_IUPAC_TRADITIONAL_NAME>
stearic acid [(2S)-2-[(2R)-3,4-dihydroxy-5-keto-2H-furan-2-yl]-2-hydroxy-ethyl] ester

> <PUBCHEM_IUPAC_INCHI>
InChI=1S/C24H42O7/c1-2-3-4-5-6-7-8-9-10-11-12-13-14-15-16-17-20(26)30-18-19(25)23-21(27)22(28)24(29)31-23/h19,23,25,27-28H,2-18H2,1H3/t19-,23+/m0/s1

> <PUBCHEM_IUPAC_INCHIKEY>
LITUBCVUXPBCGA-WMZHIEFXSA-N

> <PUBCHEM_XLOGP3>
7.3

> <PUBCHEM_EXACT_MASS>
442.29305367

> <PUBCHEM_MOLECULAR_FORMULA>
C24H42O7

> <PUBCHEM_MOLECULAR_WEIGHT>
442.6

> <PUBCHEM_SMILES>
CCCCCCCCCCCCCCCCCC(=O)OC[C@@H]([C@@H]1C(=C(C(=O)O1)O)O)O

> <PUBCHEM_OPENEYE_CAN_SMILES>
CCCCCCCCCCCCCCCCCC(=O)OCC(C1C(=C(C(=O)O1)O)O)O

> <PUBCHEM_OPENEYE_ISO_SMILES>
CCCCCCCCCCCCCCCCCC(=O)OC[C@@H]([C@@H]1C(=C(C(=O)O1)O)O)O

> <PUBCHEM_CACTVS_TPSA>
113

> <PUBCHEM_MONOISOTOPIC_WEIGHT>
442.29305367

> <PUBCHEM_TOTAL_CHARGE>
0

> <PUBCHEM_HEAVY_ATOM_COUNT>
31

> <PUBCHEM_ATOM_DEF_STEREO_COUNT>
2

> <PUBCHEM_ATOM_UDEF_STEREO_COUNT>
0

> <PUBCHEM_BOND_DEF_STEREO_COUNT>
0

> <PUBCHEM_BOND_UDEF_STEREO_COUNT>
0

> <PUBCHEM_ISOTOPIC_ATOM_COUNT>
0

> <PUBCHEM_COMPONENT_COUNT>
1

> <PUBCHEM_CACTVS_TAUTO_COUNT>
-1

> <PUBCHEM_COORDINATE_TYPE>
1
5
255

> <PUBCHEM_BONDANNOTATIONS>
25  65  6
24  3  5

$$$$
