567045
  -OEChem-04042512252D

 35 36  0     0  0  0  0  0  0999 V2000
    5.2078   -0.8090    0.0000 O   0  0  0  0  0  0  0  0  0  0  0  0
    5.2078    0.8090    0.0000 O   0  0  0  0  0  0  0  0  0  0  0  0
    2.6200    0.0000    0.0000 N   0  0  0  0  0  0  0  0  0  0  0  0
    4.6200   -0.0000    0.0000 C   0  0  0  0  0  0  0  0  0  0  0  0
    3.1200   -0.8660    0.0000 C   0  0  0  0  0  0  0  0  0  0  0  0
    3.1200    0.8660    0.0000 C   0  0  0  0  0  0  0  0  0  0  0  0
    4.1200   -0.8660    0.0000 C   0  0  0  0  0  0  0  0  0  0  0  0
    4.1200    0.8660    0.0000 C   0  0  0  0  0  0  0  0  0  0  0  0
    2.2540   -1.3660    0.0000 C   0  0  0  0  0  0  0  0  0  0  0  0
    3.1200   -1.8660    0.0000 C   0  0  0  0  0  0  0  0  0  0  0  0
    2.2540    1.3660    0.0000 C   0  0  0  0  0  0  0  0  0  0  0  0
    3.1200    1.8660    0.0000 C   0  0  0  0  0  0  0  0  0  0  0  0
    6.1588   -0.5000    0.0000 C   0  0  0  0  0  0  0  0  0  0  0  0
    6.1588    0.5000    0.0000 C   0  0  0  0  0  0  0  0  0  0  0  0
    4.0123   -1.4766    0.0000 H   0  0  0  0  0  0  0  0  0  0  0  0
    4.7026   -1.0781    0.0000 H   0  0  0  0  0  0  0  0  0  0  0  0
    4.7026    1.0781    0.0000 H   0  0  0  0  0  0  0  0  0  0  0  0
    4.0123    1.4766    0.0000 H   0  0  0  0  0  0  0  0  0  0  0  0
    2.0000   -0.0000    0.0000 H   0  0  0  0  0  0  0  0  0  0  0  0
    1.9440   -0.8291    0.0000 H   0  0  0  0  0  0  0  0  0  0  0  0
    1.7170   -1.6760    0.0000 H   0  0  0  0  0  0  0  0  0  0  0  0
    2.5640   -1.9030    0.0000 H   0  0  0  0  0  0  0  0  0  0  0  0
    2.5000   -1.8660    0.0000 H   0  0  0  0  0  0  0  0  0  0  0  0
    3.1200   -2.4860    0.0000 H   0  0  0  0  0  0  0  0  0  0  0  0
    3.7400   -1.8660    0.0000 H   0  0  0  0  0  0  0  0  0  0  0  0
    2.5640    1.9030    0.0000 H   0  0  0  0  0  0  0  0  0  0  0  0
    1.7170    1.6760    0.0000 H   0  0  0  0  0  0  0  0  0  0  0  0
    1.9440    0.8291    0.0000 H   0  0  0  0  0  0  0  0  0  0  0  0
    3.7400    1.8660    0.0000 H   0  0  0  0  0  0  0  0  0  0  0  0
    3.1200    2.4860    0.0000 H   0  0  0  0  0  0  0  0  0  0  0  0
    2.5000    1.8660    0.0000 H   0  0  0  0  0  0  0  0  0  0  0  0
    6.2878   -1.1064    0.0000 H   0  0  0  0  0  0  0  0  0  0  0  0
    6.7754   -0.4352    0.0000 H   0  0  0  0  0  0  0  0  0  0  0  0
    6.7754    0.4352    0.0000 H   0  0  0  0  0  0  0  0  0  0  0  0
    6.2878    1.1064    0.0000 H   0  0  0  0  0  0  0  0  0  0  0  0
  1  4  1  0  0  0  0
  1 13  1  0  0  0  0
  2  4  1  0  0  0  0
  2 14  1  0  0  0  0
  3  5  1  0  0  0  0
  3  6  1  0  0  0  0
  3 19  1  0  0  0  0
  4  7  1  0  0  0  0
  4  8  1  0  0  0  0
  5  7  1  0  0  0  0
  5  9  1  0  0  0  0
  5 10  1  0  0  0  0
  6  8  1  0  0  0  0
  6 11  1  0  0  0  0
  6 12  1  0  0  0  0
  7 15  1  0  0  0  0
  7 16  1  0  0  0  0
  8 17  1  0  0  0  0
  8 18  1  0  0  0  0
  9 20  1  0  0  0  0
  9 21  1  0  0  0  0
  9 22  1  0  0  0  0
 10 23  1  0  0  0  0
 10 24  1  0  0  0  0
 10 25  1  0  0  0  0
 11 26  1  0  0  0  0
 11 27  1  0  0  0  0
 11 28  1  0  0  0  0
 12 29  1  0  0  0  0
 12 30  1  0  0  0  0
 12 31  1  0  0  0  0
 13 14  1  0  0  0  0
 13 32  1  0  0  0  0
 13 33  1  0  0  0  0
 14 34  1  0  0  0  0
 14 35  1  0  0  0  0
M  END
> <PUBCHEM_COMPOUND_CID>
567045

> <PUBCHEM_COMPOUND_CANONICALIZED>
1

> <PUBCHEM_CACTVS_COMPLEXITY>
211

> <PUBCHEM_CACTVS_HBOND_ACCEPTOR>
3

> <PUBCHEM_CACTVS_HBOND_DONOR>
1

> <PUBCHEM_CACTVS_ROTATABLE_BOND>
0

> <PUBCHEM_CACTVS_SUBSKEYS>
AAADceByMAAAAAAAAAAAAAAAAAAAASAAAAAsAAAAAAAAAAAAAAAAHgAQAAAADIyhgAICCALABAAAAAAAAAAAAAAAAAAAAAAAAAARAAIAgAAmAAAGEACGAAEQgEAMAAAAAAAAAAAAAAAAAAAAAAAAAAAAAA==

> <PUBCHEM_IUPAC_OPENEYE_NAME>
7,7,9,9-tetramethyl-1,4-dioxa-8-azaspiro[4.5]decane

> <PUBCHEM_IUPAC_CAS_NAME>
7,7,9,9-tetramethyl-1,4-dioxa-8-azaspiro[4.5]decane

> <PUBCHEM_IUPAC_NAME_MARKUP>
7,7,9,9-tetramethyl-1,4-dioxa-8-azaspiro[4.5]decane

> <PUBCHEM_IUPAC_NAME>
7,7,9,9-tetramethyl-1,4-dioxa-8-azaspiro[4.5]decane

> <PUBCHEM_IUPAC_SYSTEMATIC_NAME>
7,7,9,9-tetramethyl-1,4-dioxa-8-azaspiro[4.5]decane

> <PUBCHEM_IUPAC_TRADITIONAL_NAME>
7,7,9,9-tetramethyl-1,4-dioxa-8-azaspiro[4.5]decane

> <PUBCHEM_IUPAC_INCHI>
InChI=1S/C11H21NO2/c1-9(2)7-11(13-5-6-14-11)8-10(3,4)12-9/h12H,5-8H2,1-4H3

> <PUBCHEM_IUPAC_INCHIKEY>
MWAUGJALACXHOU-UHFFFAOYSA-N

> <PUBCHEM_XLOGP3_AA>
1

> <PUBCHEM_EXACT_MASS>
199.157228913

> <PUBCHEM_MOLECULAR_FORMULA>
C11H21NO2

> <PUBCHEM_MOLECULAR_WEIGHT>
199.29

> <PUBCHEM_SMILES>
CC1(CC2(CC(N1)(C)C)OCCO2)C

> <PUBCHEM_OPENEYE_CAN_SMILES>
CC1(CC2(CC(N1)(C)C)OCCO2)C

> <PUBCHEM_OPENEYE_ISO_SMILES>
CC1(CC2(CC(N1)(C)C)OCCO2)C

> <PUBCHEM_CACTVS_TPSA>
30.5

> <PUBCHEM_MONOISOTOPIC_WEIGHT>
199.157228913

> <PUBCHEM_TOTAL_CHARGE>
0

> <PUBCHEM_HEAVY_ATOM_COUNT>
14

> <PUBCHEM_ATOM_DEF_STEREO_COUNT>
0

> <PUBCHEM_ATOM_UDEF_STEREO_COUNT>
0

> <PUBCHEM_BOND_DEF_STEREO_COUNT>
0

> <PUBCHEM_BOND_UDEF_STEREO_COUNT>
0

> <PUBCHEM_ISOTOPIC_ATOM_COUNT>
0

> <PUBCHEM_COMPONENT_COUNT>
1

> <PUBCHEM_CACTVS_TAUTO_COUNT>
-1

> <PUBCHEM_COORDINATE_TYPE>
1
5
255

$$$$
