5702717
  -OEChem-04042505442D

 50 55  0     0  0  0  0  0  0999 V2000
   14.3455    0.3717    0.0000 O   0  0  0  0  0  0  0  0  0  0  0  0
    4.6783    1.2377    0.0000 O   0  0  0  0  0  0  0  0  0  0  0  0
   14.3455   -1.2377    0.0000 N   0  0  0  0  0  0  0  0  0  0  0  0
    4.6783   -0.3717    0.0000 N   0  0  0  0  0  0  0  0  0  0  0  0
   12.7619   -0.4330    0.0000 C   0  0  0  0  0  0  0  0  0  0  0  0
    6.2619    0.4330    0.0000 C   0  0  0  0  0  0  0  0  0  0  0  0
   13.7619   -0.4330    0.0000 C   0  0  0  0  0  0  0  0  0  0  0  0
    5.2619    0.4330    0.0000 C   0  0  0  0  0  0  0  0  0  0  0  0
   10.7619   -0.4330    0.0000 C   0  0  0  0  0  0  0  0  0  0  0  0
    8.2619    0.4330    0.0000 C   0  0  0  0  0  0  0  0  0  0  0  0
   15.2917    0.0670    0.0000 C   0  0  0  0  0  0  0  0  0  0  0  0
    3.7320    0.9330    0.0000 C   0  0  0  0  0  0  0  0  0  0  0  0
   15.2917   -0.9330    0.0000 C   0  0  0  0  0  0  0  0  0  0  0  0
    3.7320   -0.0670    0.0000 C   0  0  0  0  0  0  0  0  0  0  0  0
   12.2619   -1.2990    0.0000 C   0  0  0  0  0  0  0  0  0  0  0  0
    6.7619   -0.4330    0.0000 C   0  0  0  0  0  0  0  0  0  0  0  0
   12.2619    0.4330    0.0000 C   0  0  0  0  0  0  0  0  0  0  0  0
    6.7619    1.2990    0.0000 C   0  0  0  0  0  0  0  0  0  0  0  0
   11.2619   -1.2990    0.0000 C   0  0  0  0  0  0  0  0  0  0  0  0
    7.7619   -0.4330    0.0000 C   0  0  0  0  0  0  0  0  0  0  0  0
   11.2619    0.4330    0.0000 C   0  0  0  0  0  0  0  0  0  0  0  0
    7.7619    1.2990    0.0000 C   0  0  0  0  0  0  0  0  0  0  0  0
    9.7619   -0.4330    0.0000 C   0  0  0  0  0  0  0  0  0  0  0  0
    9.2619    0.4330    0.0000 C   0  0  0  0  0  0  0  0  0  0  0  0
   16.1577    0.5670    0.0000 C   0  0  0  0  0  0  0  0  0  0  0  0
    2.8660    1.4330    0.0000 C   0  0  0  0  0  0  0  0  0  0  0  0
   16.1577   -1.4330    0.0000 C   0  0  0  0  0  0  0  0  0  0  0  0
    2.8660   -0.5670    0.0000 C   0  0  0  0  0  0  0  0  0  0  0  0
   17.0238    0.0670    0.0000 C   0  0  0  0  0  0  0  0  0  0  0  0
    2.0000    0.9330    0.0000 C   0  0  0  0  0  0  0  0  0  0  0  0
   17.0238   -0.9330    0.0000 C   0  0  0  0  0  0  0  0  0  0  0  0
    2.0000   -0.0670    0.0000 C   0  0  0  0  0  0  0  0  0  0  0  0
   12.5719   -1.8360    0.0000 H   0  0  0  0  0  0  0  0  0  0  0  0
    6.4519   -0.9699    0.0000 H   0  0  0  0  0  0  0  0  0  0  0  0
   12.5719    0.9699    0.0000 H   0  0  0  0  0  0  0  0  0  0  0  0
    6.4519    1.8360    0.0000 H   0  0  0  0  0  0  0  0  0  0  0  0
   10.9519   -1.8360    0.0000 H   0  0  0  0  0  0  0  0  0  0  0  0
    8.0719   -0.9699    0.0000 H   0  0  0  0  0  0  0  0  0  0  0  0
   10.9519    0.9699    0.0000 H   0  0  0  0  0  0  0  0  0  0  0  0
    8.0719    1.8360    0.0000 H   0  0  0  0  0  0  0  0  0  0  0  0
    9.4519   -0.9699    0.0000 H   0  0  0  0  0  0  0  0  0  0  0  0
    9.5719    0.9699    0.0000 H   0  0  0  0  0  0  0  0  0  0  0  0
   16.1577    1.1870    0.0000 H   0  0  0  0  0  0  0  0  0  0  0  0
    2.8660    2.0530    0.0000 H   0  0  0  0  0  0  0  0  0  0  0  0
   16.1577   -2.0530    0.0000 H   0  0  0  0  0  0  0  0  0  0  0  0
    2.8660   -1.1870    0.0000 H   0  0  0  0  0  0  0  0  0  0  0  0
   17.5607    0.3770    0.0000 H   0  0  0  0  0  0  0  0  0  0  0  0
    1.4631    1.2430    0.0000 H   0  0  0  0  0  0  0  0  0  0  0  0
   17.5607   -1.2430    0.0000 H   0  0  0  0  0  0  0  0  0  0  0  0
    1.4631   -0.3770    0.0000 H   0  0  0  0  0  0  0  0  0  0  0  0
  1  7  1  0  0  0  0
  1 11  1  0  0  0  0
  2  8  1  0  0  0  0
  2 12  1  0  0  0  0
  3  7  2  0  0  0  0
  3 13  1  0  0  0  0
  4  8  2  0  0  0  0
  4 14  1  0  0  0  0
  5  7  1  0  0  0  0
  5 15  2  0  0  0  0
  5 17  1  0  0  0  0
  6  8  1  0  0  0  0
  6 16  2  0  0  0  0
  6 18  1  0  0  0  0
  9 19  2  0  0  0  0
  9 21  1  0  0  0  0
  9 23  1  0  0  0  0
 10 20  2  0  0  0  0
 10 22  1  0  0  0  0
 10 24  1  0  0  0  0
 11 13  1  0  0  0  0
 11 25  2  0  0  0  0
 12 14  1  0  0  0  0
 12 26  2  0  0  0  0
 13 27  2  0  0  0  0
 14 28  2  0  0  0  0
 15 19  1  0  0  0  0
 15 33  1  0  0  0  0
 16 20  1  0  0  0  0
 16 34  1  0  0  0  0
 17 21  2  0  0  0  0
 17 35  1  0  0  0  0
 18 22  2  0  0  0  0
 18 36  1  0  0  0  0
 19 37  1  0  0  0  0
 20 38  1  0  0  0  0
 21 39  1  0  0  0  0
 22 40  1  0  0  0  0
 23 24  2  0  0  0  0
 23 41  1  0  0  0  0
 24 42  1  0  0  0  0
 25 29  1  0  0  0  0
 25 43  1  0  0  0  0
 26 30  1  0  0  0  0
 26 44  1  0  0  0  0
 27 31  1  0  0  0  0
 27 45  1  0  0  0  0
 28 32  1  0  0  0  0
 28 46  1  0  0  0  0
 29 31  2  0  0  0  0
 29 47  1  0  0  0  0
 30 32  2  0  0  0  0
 30 48  1  0  0  0  0
 31 49  1  0  0  0  0
 32 50  1  0  0  0  0
M  END
> <PUBCHEM_COMPOUND_CID>
5702717

> <PUBCHEM_COMPOUND_CANONICALIZED>
1

> <PUBCHEM_CACTVS_COMPLEXITY>
583

> <PUBCHEM_CACTVS_HBOND_ACCEPTOR>
4

> <PUBCHEM_CACTVS_HBOND_DONOR>
0

> <PUBCHEM_CACTVS_ROTATABLE_BOND>
4

> <PUBCHEM_CACTVS_SUBSKEYS>
AAADceB7MAAAAAAAAAAAAAAAAAAAAWLAAAAwYMGAAAAAAFgB/gAAHgAAAAAADAyBngAwxrIIFECoA6VyVASCiCAvYiAImCG3bNgOJrLEtbuPOSjkxBHY6YeYyDCOQAAAAAAAEACAAAAAAAAgAAAAAAAAAA==

> <PUBCHEM_IUPAC_OPENEYE_NAME>
2-[4-[(E)-2-[4-(1,3-benzoxazol-2-yl)phenyl]vinyl]phenyl]-1,3-benzoxazole

> <PUBCHEM_IUPAC_CAS_NAME>
2-[4-[(E)-2-[4-(1,3-benzoxazol-2-yl)phenyl]ethenyl]phenyl]-1,3-benzoxazole

> <PUBCHEM_IUPAC_NAME_MARKUP>
2-[4-[(<I>E</I>)-2-[4-(1,3-benzoxazol-2-yl)phenyl]ethenyl]phenyl]-1,3-benzoxazole

> <PUBCHEM_IUPAC_NAME>
2-[4-[(E)-2-[4-(1,3-benzoxazol-2-yl)phenyl]ethenyl]phenyl]-1,3-benzoxazole

> <PUBCHEM_IUPAC_SYSTEMATIC_NAME>
2-[4-[(E)-2-[4-(1,3-benzoxazol-2-yl)phenyl]ethenyl]phenyl]-1,3-benzoxazole

> <PUBCHEM_IUPAC_TRADITIONAL_NAME>
2-[4-[(E)-2-[4-(1,3-benzoxazol-2-yl)phenyl]vinyl]phenyl]-1,3-benzoxazole

> <PUBCHEM_IUPAC_INCHI>
InChI=1S/C28H18N2O2/c1-3-7-25-23(5-1)29-27(31-25)21-15-11-19(12-16-21)9-10-20-13-17-22(18-14-20)28-30-24-6-2-4-8-26(24)32-28/h1-18H/b10-9+

> <PUBCHEM_IUPAC_INCHIKEY>
ORACIQIJMCYPHQ-MDZDMXLPSA-N

> <PUBCHEM_XLOGP3_AA>
7.2

> <PUBCHEM_EXACT_MASS>
414.136827821

> <PUBCHEM_MOLECULAR_FORMULA>
C28H18N2O2

> <PUBCHEM_MOLECULAR_WEIGHT>
414.5

> <PUBCHEM_SMILES>
C1=CC=C2C(=C1)N=C(O2)C3=CC=C(C=C3)/C=C/C4=CC=C(C=C4)C5=NC6=CC=CC=C6O5

> <PUBCHEM_OPENEYE_CAN_SMILES>
C1=CC=C2C(=C1)N=C(O2)C3=CC=C(C=C3)C=CC4=CC=C(C=C4)C5=NC6=CC=CC=C6O5

> <PUBCHEM_OPENEYE_ISO_SMILES>
C1=CC=C2C(=C1)N=C(O2)C3=CC=C(C=C3)/C=C/C4=CC=C(C=C4)C5=NC6=CC=CC=C6O5

> <PUBCHEM_CACTVS_TPSA>
52.1

> <PUBCHEM_MONOISOTOPIC_WEIGHT>
414.136827821

> <PUBCHEM_TOTAL_CHARGE>
0

> <PUBCHEM_HEAVY_ATOM_COUNT>
32

> <PUBCHEM_ATOM_DEF_STEREO_COUNT>
0

> <PUBCHEM_ATOM_UDEF_STEREO_COUNT>
0

> <PUBCHEM_BOND_DEF_STEREO_COUNT>
1

> <PUBCHEM_BOND_UDEF_STEREO_COUNT>
0

> <PUBCHEM_ISOTOPIC_ATOM_COUNT>
0

> <PUBCHEM_COMPONENT_COUNT>
1

> <PUBCHEM_CACTVS_TAUTO_COUNT>
-1

> <PUBCHEM_COORDINATE_TYPE>
1
5
255

> <PUBCHEM_BONDANNOTATIONS>
1  11  8
1  7  8
10  20  8
10  22  8
11  13  8
11  25  8
12  14  8
12  26  8
13  27  8
14  28  8
15  19  8
16  20  8
17  21  8
18  22  8
2  12  8
2  8  8
25  29  8
26  30  8
27  31  8
28  32  8
29  31  8
3  13  8
3  7  8
30  32  8
4  14  8
4  8  8
5  15  8
5  17  8
6  16  8
6  18  8
9  19  8
9  21  8

$$$$
