57994437
  -OEChem-03202505432D

112113  0     0  0  0  0  0  0999 V2000
    9.0403   -0.1545    0.0000 Sn  0  0  0  0  0  0  0  0  0  0  0  0
    2.9511    0.1545    0.0000 Sn  0  0  0  0  0  0  0  0  0  0  0  0
    7.2802   -0.4333    0.0000 S   0  0  0  0  0  0  0  0  0  0  0  0
    4.7111    0.4333    0.0000 S   0  0  0  0  0  0  0  0  0  0  0  0
    8.0892    0.1545    0.0000 C   0  0  0  0  0  0  0  0  0  0  0  0
    3.9021   -0.1545    0.0000 C   0  0  0  0  0  0  0  0  0  0  0  0
    7.7802    1.1056    0.0000 C   0  0  0  0  0  0  0  0  0  0  0  0
    4.2111   -1.1056    0.0000 C   0  0  0  0  0  0  0  0  0  0  0  0
    8.3680    1.9146    0.0000 C   0  0  0  0  0  0  0  0  0  0  0  0
    3.6233   -1.9146    0.0000 C   0  0  0  0  0  0  0  0  0  0  0  0
    7.9613    2.8281    0.0000 C   0  0  0  0  0  0  0  0  0  0  0  0
    4.0301   -2.8281    0.0000 C   0  0  0  0  0  0  0  0  0  0  0  0
    6.4712    0.1545    0.0000 C   0  0  0  0  0  0  0  0  0  0  0  0
    5.5202   -0.1545    0.0000 C   0  0  0  0  0  0  0  0  0  0  0  0
    8.5490    3.6371    0.0000 C   0  0  0  0  0  0  0  0  0  0  0  0
    3.4423   -3.6371    0.0000 C   0  0  0  0  0  0  0  0  0  0  0  0
    6.7802    1.1056    0.0000 C   0  0  0  0  0  0  0  0  0  0  0  0
    5.2111   -1.1056    0.0000 C   0  0  0  0  0  0  0  0  0  0  0  0
    8.1423    4.5507    0.0000 C   0  0  0  0  0  0  0  0  0  0  0  0
    3.8490   -4.5507    0.0000 C   0  0  0  0  0  0  0  0  0  0  0  0
    8.7301    5.3597    0.0000 C   0  0  0  0  0  0  0  0  0  0  0  0
    3.2612   -5.3597    0.0000 C   0  0  0  0  0  0  0  0  0  0  0  0
    9.9914   -0.4635    0.0000 C   0  0  0  0  0  0  0  0  0  0  0  0
    8.7313   -1.1056    0.0000 C   0  0  0  0  0  0  0  0  0  0  0  0
    9.3493    0.7965    0.0000 C   0  0  0  0  0  0  0  0  0  0  0  0
    2.0000    0.4635    0.0000 C   0  0  0  0  0  0  0  0  0  0  0  0
    3.2601    1.1056    0.0000 C   0  0  0  0  0  0  0  0  0  0  0  0
    2.6420   -0.7965    0.0000 C   0  0  0  0  0  0  0  0  0  0  0  0
    8.3234    6.2732    0.0000 C   0  0  0  0  0  0  0  0  0  0  0  0
    3.6680   -6.2732    0.0000 C   0  0  0  0  0  0  0  0  0  0  0  0
    8.9111    7.0823    0.0000 C   0  0  0  0  0  0  0  0  0  0  0  0
    3.0802   -7.0823    0.0000 C   0  0  0  0  0  0  0  0  0  0  0  0
    8.5044    7.9958    0.0000 C   0  0  0  0  0  0  0  0  0  0  0  0
    3.4869   -7.9958    0.0000 C   0  0  0  0  0  0  0  0  0  0  0  0
    9.0922    8.8048    0.0000 C   0  0  0  0  0  0  0  0  0  0  0  0
    2.8992   -8.8048    0.0000 C   0  0  0  0  0  0  0  0  0  0  0  0
    8.6855    9.7184    0.0000 C   0  0  0  0  0  0  0  0  0  0  0  0
    3.3059   -9.7184    0.0000 C   0  0  0  0  0  0  0  0  0  0  0  0
    9.2733   10.5274    0.0000 C   0  0  0  0  0  0  0  0  0  0  0  0
    2.7181  -10.5274    0.0000 C   0  0  0  0  0  0  0  0  0  0  0  0
    8.8665   11.4409    0.0000 C   0  0  0  0  0  0  0  0  0  0  0  0
    3.1248  -11.4409    0.0000 C   0  0  0  0  0  0  0  0  0  0  0  0
    8.7987    1.4686    0.0000 H   0  0  0  0  0  0  0  0  0  0  0  0
    8.8820    2.2613    0.0000 H   0  0  0  0  0  0  0  0  0  0  0  0
    3.1927   -1.4686    0.0000 H   0  0  0  0  0  0  0  0  0  0  0  0
    3.1093   -2.2613    0.0000 H   0  0  0  0  0  0  0  0  0  0  0  0
    7.5306    3.2741    0.0000 H   0  0  0  0  0  0  0  0  0  0  0  0
    7.4473    2.4814    0.0000 H   0  0  0  0  0  0  0  0  0  0  0  0
    4.4608   -3.2741    0.0000 H   0  0  0  0  0  0  0  0  0  0  0  0
    4.5441   -2.4814    0.0000 H   0  0  0  0  0  0  0  0  0  0  0  0
    8.9797    3.1912    0.0000 H   0  0  0  0  0  0  0  0  0  0  0  0
    9.0631    3.9838    0.0000 H   0  0  0  0  0  0  0  0  0  0  0  0
    3.0116   -3.1912    0.0000 H   0  0  0  0  0  0  0  0  0  0  0  0
    2.9283   -3.9838    0.0000 H   0  0  0  0  0  0  0  0  0  0  0  0
    6.4158    1.6072    0.0000 H   0  0  0  0  0  0  0  0  0  0  0  0
    5.5756   -1.6072    0.0000 H   0  0  0  0  0  0  0  0  0  0  0  0
    7.7116    4.9967    0.0000 H   0  0  0  0  0  0  0  0  0  0  0  0
    7.6283    4.2040    0.0000 H   0  0  0  0  0  0  0  0  0  0  0  0
    4.2797   -4.9967    0.0000 H   0  0  0  0  0  0  0  0  0  0  0  0
    4.3630   -4.2040    0.0000 H   0  0  0  0  0  0  0  0  0  0  0  0
    9.1608    4.9137    0.0000 H   0  0  0  0  0  0  0  0  0  0  0  0
    9.2441    5.7064    0.0000 H   0  0  0  0  0  0  0  0  0  0  0  0
    2.8306   -4.9137    0.0000 H   0  0  0  0  0  0  0  0  0  0  0  0
    2.7472   -5.7064    0.0000 H   0  0  0  0  0  0  0  0  0  0  0  0
    9.7998   -1.0532    0.0000 H   0  0  0  0  0  0  0  0  0  0  0  0
   10.5810   -0.6551    0.0000 H   0  0  0  0  0  0  0  0  0  0  0  0
   10.1829    0.1261    0.0000 H   0  0  0  0  0  0  0  0  0  0  0  0
    8.1416   -0.9140    0.0000 H   0  0  0  0  0  0  0  0  0  0  0  0
    8.5397   -1.6952    0.0000 H   0  0  0  0  0  0  0  0  0  0  0  0
    9.3209   -1.2972    0.0000 H   0  0  0  0  0  0  0  0  0  0  0  0
    9.9390    0.6050    0.0000 H   0  0  0  0  0  0  0  0  0  0  0  0
    9.5409    1.3862    0.0000 H   0  0  0  0  0  0  0  0  0  0  0  0
    8.7597    0.9881    0.0000 H   0  0  0  0  0  0  0  0  0  0  0  0
    2.1916    1.0532    0.0000 H   0  0  0  0  0  0  0  0  0  0  0  0
    1.4103    0.6551    0.0000 H   0  0  0  0  0  0  0  0  0  0  0  0
    1.8084   -0.1261    0.0000 H   0  0  0  0  0  0  0  0  0  0  0  0
    3.8497    0.9140    0.0000 H   0  0  0  0  0  0  0  0  0  0  0  0
    3.4517    1.6952    0.0000 H   0  0  0  0  0  0  0  0  0  0  0  0
    2.6704    1.2972    0.0000 H   0  0  0  0  0  0  0  0  0  0  0  0
    2.0524   -0.6050    0.0000 H   0  0  0  0  0  0  0  0  0  0  0  0
    2.4504   -1.3862    0.0000 H   0  0  0  0  0  0  0  0  0  0  0  0
    3.2317   -0.9881    0.0000 H   0  0  0  0  0  0  0  0  0  0  0  0
    7.8927    6.7192    0.0000 H   0  0  0  0  0  0  0  0  0  0  0  0
    7.8094    5.9266    0.0000 H   0  0  0  0  0  0  0  0  0  0  0  0
    4.0987   -6.7192    0.0000 H   0  0  0  0  0  0  0  0  0  0  0  0
    4.1820   -5.9266    0.0000 H   0  0  0  0  0  0  0  0  0  0  0  0
    9.3418    6.6363    0.0000 H   0  0  0  0  0  0  0  0  0  0  0  0
    9.4252    7.4290    0.0000 H   0  0  0  0  0  0  0  0  0  0  0  0
    2.6495   -6.6363    0.0000 H   0  0  0  0  0  0  0  0  0  0  0  0
    2.5662   -7.4290    0.0000 H   0  0  0  0  0  0  0  0  0  0  0  0
    8.0737    8.4418    0.0000 H   0  0  0  0  0  0  0  0  0  0  0  0
    7.9904    7.6491    0.0000 H   0  0  0  0  0  0  0  0  0  0  0  0
    3.9176   -8.4418    0.0000 H   0  0  0  0  0  0  0  0  0  0  0  0
    4.0009   -7.6491    0.0000 H   0  0  0  0  0  0  0  0  0  0  0  0
    9.5229    8.3588    0.0000 H   0  0  0  0  0  0  0  0  0  0  0  0
    9.6062    9.1515    0.0000 H   0  0  0  0  0  0  0  0  0  0  0  0
    2.4685   -8.3588    0.0000 H   0  0  0  0  0  0  0  0  0  0  0  0
    2.3852   -9.1515    0.0000 H   0  0  0  0  0  0  0  0  0  0  0  0
    8.2548   10.1644    0.0000 H   0  0  0  0  0  0  0  0  0  0  0  0
    8.1715    9.3717    0.0000 H   0  0  0  0  0  0  0  0  0  0  0  0
    3.7366  -10.1644    0.0000 H   0  0  0  0  0  0  0  0  0  0  0  0
    3.8199   -9.3717    0.0000 H   0  0  0  0  0  0  0  0  0  0  0  0
    9.7039   10.0814    0.0000 H   0  0  0  0  0  0  0  0  0  0  0  0
    9.7872   10.8741    0.0000 H   0  0  0  0  0  0  0  0  0  0  0  0
    2.2874  -10.0814    0.0000 H   0  0  0  0  0  0  0  0  0  0  0  0
    2.2041  -10.8741    0.0000 H   0  0  0  0  0  0  0  0  0  0  0  0
    9.4329   11.6931    0.0000 H   0  0  0  0  0  0  0  0  0  0  0  0
    8.6143   12.0073    0.0000 H   0  0  0  0  0  0  0  0  0  0  0  0
    8.3001   11.1888    0.0000 H   0  0  0  0  0  0  0  0  0  0  0  0
    2.5584  -11.6931    0.0000 H   0  0  0  0  0  0  0  0  0  0  0  0
    3.3770  -12.0073    0.0000 H   0  0  0  0  0  0  0  0  0  0  0  0
    3.6912  -11.1888    0.0000 H   0  0  0  0  0  0  0  0  0  0  0  0
  1  5  1  0  0  0  0
  1 23  1  0  0  0  0
  1 24  1  0  0  0  0
  1 25  1  0  0  0  0
  2  6  1  0  0  0  0
  2 26  1  0  0  0  0
  2 27  1  0  0  0  0
  2 28  1  0  0  0  0
  3  5  1  0  0  0  0
  3 13  1  0  0  0  0
  4  6  1  0  0  0  0
  4 14  1  0  0  0  0
  5  7  2  0  0  0  0
  6  8  2  0  0  0  0
  7  9  1  0  0  0  0
  7 17  1  0  0  0  0
  8 10  1  0  0  0  0
  8 18  1  0  0  0  0
  9 11  1  0  0  0  0
  9 43  1  0  0  0  0
  9 44  1  0  0  0  0
 10 12  1  0  0  0  0
 10 45  1  0  0  0  0
 10 46  1  0  0  0  0
 11 15  1  0  0  0  0
 11 47  1  0  0  0  0
 11 48  1  0  0  0  0
 12 16  1  0  0  0  0
 12 49  1  0  0  0  0
 12 50  1  0  0  0  0
 13 14  1  0  0  0  0
 13 17  2  0  0  0  0
 14 18  2  0  0  0  0
 15 19  1  0  0  0  0
 15 51  1  0  0  0  0
 15 52  1  0  0  0  0
 16 20  1  0  0  0  0
 16 53  1  0  0  0  0
 16 54  1  0  0  0  0
 17 55  1  0  0  0  0
 18 56  1  0  0  0  0
 19 21  1  0  0  0  0
 19 57  1  0  0  0  0
 19 58  1  0  0  0  0
 20 22  1  0  0  0  0
 20 59  1  0  0  0  0
 20 60  1  0  0  0  0
 21 29  1  0  0  0  0
 21 61  1  0  0  0  0
 21 62  1  0  0  0  0
 22 30  1  0  0  0  0
 22 63  1  0  0  0  0
 22 64  1  0  0  0  0
 23 65  1  0  0  0  0
 23 66  1  0  0  0  0
 23 67  1  0  0  0  0
 24 68  1  0  0  0  0
 24 69  1  0  0  0  0
 24 70  1  0  0  0  0
 25 71  1  0  0  0  0
 25 72  1  0  0  0  0
 25 73  1  0  0  0  0
 26 74  1  0  0  0  0
 26 75  1  0  0  0  0
 26 76  1  0  0  0  0
 27 77  1  0  0  0  0
 27 78  1  0  0  0  0
 27 79  1  0  0  0  0
 28 80  1  0  0  0  0
 28 81  1  0  0  0  0
 28 82  1  0  0  0  0
 29 31  1  0  0  0  0
 29 83  1  0  0  0  0
 29 84  1  0  0  0  0
 30 32  1  0  0  0  0
 30 85  1  0  0  0  0
 30 86  1  0  0  0  0
 31 33  1  0  0  0  0
 31 87  1  0  0  0  0
 31 88  1  0  0  0  0
 32 34  1  0  0  0  0
 32 89  1  0  0  0  0
 32 90  1  0  0  0  0
 33 35  1  0  0  0  0
 33 91  1  0  0  0  0
 33 92  1  0  0  0  0
 34 36  1  0  0  0  0
 34 93  1  0  0  0  0
 34 94  1  0  0  0  0
 35 37  1  0  0  0  0
 35 95  1  0  0  0  0
 35 96  1  0  0  0  0
 36 38  1  0  0  0  0
 36 97  1  0  0  0  0
 36 98  1  0  0  0  0
 37 39  1  0  0  0  0
 37 99  1  0  0  0  0
 37100  1  0  0  0  0
 38 40  1  0  0  0  0
 38101  1  0  0  0  0
 38102  1  0  0  0  0
 39 41  1  0  0  0  0
 39103  1  0  0  0  0
 39104  1  0  0  0  0
 40 42  1  0  0  0  0
 40105  1  0  0  0  0
 40106  1  0  0  0  0
 41107  1  0  0  0  0
 41108  1  0  0  0  0
 41109  1  0  0  0  0
 42110  1  0  0  0  0
 42111  1  0  0  0  0
 42112  1  0  0  0  0
M  END
> <PUBCHEM_COMPOUND_CID>
57994437

> <PUBCHEM_COMPOUND_CANONICALIZED>
1

> <PUBCHEM_CACTVS_COMPLEXITY>
598

> <PUBCHEM_CACTVS_HBOND_ACCEPTOR>
2

> <PUBCHEM_CACTVS_HBOND_DONOR>
0

> <PUBCHEM_CACTVS_ROTATABLE_BOND>
25

> <PUBCHEM_CACTVS_SUBSKEYS>
AAADcfB8AABgAAAAAACAAAAAAAAAASJAAAAAAAAAAAAAAAAB4AAAGAQAAAAADACAWAAyAYAAAAiEAiBCAAADAIAgCBBAiBgAAIgIICKgERCAIAAggAAoiAcAgMAOAAAAAAAAAAAAAAAAAAAAAAAAAAAAAA==

> <PUBCHEM_IUPAC_OPENEYE_NAME>
[3-dodecyl-5-(4-dodecyl-5-trimethylstannyl-2-thienyl)-2-thienyl]-trimethyl-stannane

> <PUBCHEM_IUPAC_CAS_NAME>
[3-dodecyl-5-(4-dodecyl-5-trimethylstannyl-2-thiophenyl)-2-thiophenyl]-trimethylstannane

> <PUBCHEM_IUPAC_NAME_MARKUP>
[3-dodecyl-5-(4-dodecyl-5-trimethylstannylthiophen-2-yl)thiophen-2-yl]-trimethylstannane

> <PUBCHEM_IUPAC_NAME>
[3-dodecyl-5-(4-dodecyl-5-trimethylstannylthiophen-2-yl)thiophen-2-yl]-trimethylstannane

> <PUBCHEM_IUPAC_SYSTEMATIC_NAME>
[3-dodecyl-5-(4-dodecyl-5-trimethylstannyl-thiophen-2-yl)thiophen-2-yl]-trimethyl-stannane

> <PUBCHEM_IUPAC_TRADITIONAL_NAME>
[3-lauryl-5-(4-lauryl-5-trimethylstannyl-2-thienyl)-2-thienyl]-trimethyl-stannane

> <PUBCHEM_IUPAC_INCHI>
InChI=1S/C32H52S2.6CH3.2Sn/c1-3-5-7-9-11-13-15-17-19-21-23-29-25-31(33-27-29)32-26-30(28-34-32)24-22-20-18-16-14-12-10-8-6-4-2;;;;;;;;/h25-26H,3-24H2,1-2H3;6*1H3;;

> <PUBCHEM_IUPAC_INCHIKEY>
CWQJBIYNELJGBE-UHFFFAOYSA-N

> <PUBCHEM_EXACT_MASS>
828.29570

> <PUBCHEM_MOLECULAR_FORMULA>
C38H70S2Sn2

> <PUBCHEM_MOLECULAR_WEIGHT>
828.5

> <PUBCHEM_SMILES>
CCCCCCCCCCCCC1=C(SC(=C1)C2=CC(=C(S2)[Sn](C)(C)C)CCCCCCCCCCCC)[Sn](C)(C)C

> <PUBCHEM_OPENEYE_CAN_SMILES>
CCCCCCCCCCCCC1=C(SC(=C1)C2=CC(=C(S2)[Sn](C)(C)C)CCCCCCCCCCCC)[Sn](C)(C)C

> <PUBCHEM_OPENEYE_ISO_SMILES>
CCCCCCCCCCCCC1=C(SC(=C1)C2=CC(=C(S2)[Sn](C)(C)C)CCCCCCCCCCCC)[Sn](C)(C)C

> <PUBCHEM_CACTVS_TPSA>
56.5

> <PUBCHEM_MONOISOTOPIC_WEIGHT>
830.29630

> <PUBCHEM_TOTAL_CHARGE>
0

> <PUBCHEM_HEAVY_ATOM_COUNT>
42

> <PUBCHEM_ATOM_DEF_STEREO_COUNT>
0

> <PUBCHEM_ATOM_UDEF_STEREO_COUNT>
0

> <PUBCHEM_BOND_DEF_STEREO_COUNT>
0

> <PUBCHEM_BOND_UDEF_STEREO_COUNT>
0

> <PUBCHEM_ISOTOPIC_ATOM_COUNT>
0

> <PUBCHEM_COMPONENT_COUNT>
1

> <PUBCHEM_CACTVS_TAUTO_COUNT>
-1

> <PUBCHEM_COORDINATE_TYPE>
1
5
255

> <PUBCHEM_BONDANNOTATIONS>
13  17  8
14  18  8
3  13  8
3  5  8
4  14  8
4  6  8
5  7  8
6  8  8
7  17  8
8  18  8

$$$$
