58100386
  -OEChem-04042506002D

 85 89  0     0  0  0  0  0  0999 V2000
    7.4393   -1.4818    0.0000 O   0  0  0  0  0  0  0  0  0  0  0  0
    6.6324    3.0220    0.0000 O   0  0  0  0  0  0  0  0  0  0  0  0
   10.0965    3.0220    0.0000 O   0  0  0  0  0  0  0  0  0  0  0  0
    8.3645    3.0220    0.0000 N   0  0  0  0  0  0  0  0  0  0  0  0
    3.9130   -3.3700    0.0000 C   0  0  0  0  0  0  0  0  0  0  0  0
    2.9995   -4.8415    0.0000 C   0  0  0  0  0  0  0  0  0  0  0  0
    3.0315   -3.8420    0.0000 C   0  0  0  0  0  0  0  0  0  0  0  0
    4.7946   -2.8979    0.0000 C   0  0  0  0  0  0  0  0  0  0  0  0
    4.3851   -4.2516    0.0000 C   0  0  0  0  0  0  0  0  0  0  0  0
    3.4410   -2.4884    0.0000 C   0  0  0  0  0  0  0  0  0  0  0  0
    2.9675   -5.8410    0.0000 C   0  0  0  0  0  0  0  0  0  0  0  0
    2.0000   -4.8096    0.0000 C   0  0  0  0  0  0  0  0  0  0  0  0
    3.9990   -4.8735    0.0000 C   0  0  0  0  0  0  0  0  0  0  0  0
    5.6442   -3.4254    0.0000 C   0  0  0  0  0  0  0  0  0  0  0  0
    4.8266   -1.8985    0.0000 C   0  0  0  0  0  0  0  0  0  0  0  0
    6.5258   -2.9533    0.0000 C   0  0  0  0  0  0  0  0  0  0  0  0
    5.7082   -1.4264    0.0000 C   0  0  0  0  0  0  0  0  0  0  0  0
    6.5578   -1.9538    0.0000 C   0  0  0  0  0  0  0  0  0  0  0  0
    7.7217    3.7880    0.0000 C   0  0  0  0  0  0  0  0  0  0  0  0
    6.7369    3.6144    0.0000 C   0  0  0  0  0  0  0  0  0  0  0  0
    8.0637    4.7277    0.0000 C   0  0  0  0  0  0  0  0  0  0  0  0
    8.3645    1.0220    0.0000 C   0  0  0  0  0  0  0  0  0  0  0  0
    5.8708    3.1144    0.0000 C   0  0  0  0  0  0  0  0  0  0  0  0
    9.0485    4.9013    0.0000 C   0  0  0  0  0  0  0  0  0  0  0  0
    7.4984    1.5220    0.0000 C   0  0  0  0  0  0  0  0  0  0  0  0
    8.3484   -0.0196    0.0000 C   0  0  0  0  0  0  0  0  0  0  0  0
    9.2305    1.5220    0.0000 C   0  0  0  0  0  0  0  0  0  0  0  0
    7.4713   -0.4823    0.0000 C   0  0  0  0  0  0  0  0  0  0  0  0
    7.4984    2.5220    0.0000 C   0  0  0  0  0  0  0  0  0  0  0  0
    9.2305    2.5220    0.0000 C   0  0  0  0  0  0  0  0  0  0  0  0
    6.0941    4.3804    0.0000 C   0  0  0  0  0  0  0  0  0  0  0  0
    7.4209    5.4937    0.0000 C   0  0  0  0  0  0  0  0  0  0  0  0
    6.6390    1.0272    0.0000 C   0  0  0  0  0  0  0  0  0  0  0  0
    6.6256    0.0356    0.0000 C   0  0  0  0  0  0  0  0  0  0  0  0
    5.0048    3.6144    0.0000 C   0  0  0  0  0  0  0  0  0  0  0  0
    5.8709    2.1143    0.0000 C   0  0  0  0  0  0  0  0  0  0  0  0
    9.3905    5.8410    0.0000 C   0  0  0  0  0  0  0  0  0  0  0  0
    9.6913    4.1353    0.0000 C   0  0  0  0  0  0  0  0  0  0  0  0
    6.4361    5.3201    0.0000 C   0  0  0  0  0  0  0  0  0  0  0  0
    9.2464   -0.5473    0.0000 C   0  0  0  0  0  0  0  0  0  0  0  0
   10.1405    1.0151    0.0000 C   0  0  0  0  0  0  0  0  0  0  0  0
   10.1485   -0.0265    0.0000 C   0  0  0  0  0  0  0  0  0  0  0  0
    2.8382   -3.2530    0.0000 H   0  0  0  0  0  0  0  0  0  0  0  0
    2.4178   -3.9301    0.0000 H   0  0  0  0  0  0  0  0  0  0  0  0
    3.8385   -4.5442    0.0000 H   0  0  0  0  0  0  0  0  0  0  0  0
    4.6778   -4.7982    0.0000 H   0  0  0  0  0  0  0  0  0  0  0  0
    4.9317   -3.9589    0.0000 H   0  0  0  0  0  0  0  0  0  0  0  0
    3.9876   -2.1958    0.0000 H   0  0  0  0  0  0  0  0  0  0  0  0
    3.1483   -1.9419    0.0000 H   0  0  0  0  0  0  0  0  0  0  0  0
    2.8944   -2.7811    0.0000 H   0  0  0  0  0  0  0  0  0  0  0  0
    2.3478   -5.8212    0.0000 H   0  0  0  0  0  0  0  0  0  0  0  0
    2.9477   -6.4607    0.0000 H   0  0  0  0  0  0  0  0  0  0  0  0
    3.5872   -5.8609    0.0000 H   0  0  0  0  0  0  0  0  0  0  0  0
    2.0198   -4.1899    0.0000 H   0  0  0  0  0  0  0  0  0  0  0  0
    1.3803   -4.7897    0.0000 H   0  0  0  0  0  0  0  0  0  0  0  0
    1.9802   -5.4292    0.0000 H   0  0  0  0  0  0  0  0  0  0  0  0
    3.9792   -5.4932    0.0000 H   0  0  0  0  0  0  0  0  0  0  0  0
    4.6187   -4.8933    0.0000 H   0  0  0  0  0  0  0  0  0  0  0  0
    4.0188   -4.2538    0.0000 H   0  0  0  0  0  0  0  0  0  0  0  0
    5.6244   -4.0451    0.0000 H   0  0  0  0  0  0  0  0  0  0  0  0
    4.2998   -1.5714    0.0000 H   0  0  0  0  0  0  0  0  0  0  0  0
    7.0525   -3.2804    0.0000 H   0  0  0  0  0  0  0  0  0  0  0  0
    5.7280   -0.8067    0.0000 H   0  0  0  0  0  0  0  0  0  0  0  0
    5.3339    2.8044    0.0000 H   0  0  0  0  0  0  0  0  0  0  0  0
    8.6500    5.3763    0.0000 H   0  0  0  0  0  0  0  0  0  0  0  0
    5.4835    4.2727    0.0000 H   0  0  0  0  0  0  0  0  0  0  0  0
    7.6330    6.0763    0.0000 H   0  0  0  0  0  0  0  0  0  0  0  0
    6.1044    1.3411    0.0000 H   0  0  0  0  0  0  0  0  0  0  0  0
    6.0826   -0.2638    0.0000 H   0  0  0  0  0  0  0  0  0  0  0  0
    5.3149    4.1514    0.0000 H   0  0  0  0  0  0  0  0  0  0  0  0
    4.4679    3.9245    0.0000 H   0  0  0  0  0  0  0  0  0  0  0  0
    4.6948    3.0775    0.0000 H   0  0  0  0  0  0  0  0  0  0  0  0
    5.2509    2.1143    0.0000 H   0  0  0  0  0  0  0  0  0  0  0  0
    5.8709    1.4943    0.0000 H   0  0  0  0  0  0  0  0  0  0  0  0
    6.4909    2.1144    0.0000 H   0  0  0  0  0  0  0  0  0  0  0  0
    9.9732    5.6290    0.0000 H   0  0  0  0  0  0  0  0  0  0  0  0
    9.6026    6.4236    0.0000 H   0  0  0  0  0  0  0  0  0  0  0  0
    8.8079    6.0531    0.0000 H   0  0  0  0  0  0  0  0  0  0  0  0
    9.2164    3.7368    0.0000 H   0  0  0  0  0  0  0  0  0  0  0  0
   10.0898    3.6604    0.0000 H   0  0  0  0  0  0  0  0  0  0  0  0
   10.1663    4.5338    0.0000 H   0  0  0  0  0  0  0  0  0  0  0  0
    6.0376    5.7950    0.0000 H   0  0  0  0  0  0  0  0  0  0  0  0
    9.2441   -1.1673    0.0000 H   0  0  0  0  0  0  0  0  0  0  0  0
   10.6738    1.3313    0.0000 H   0  0  0  0  0  0  0  0  0  0  0  0
   10.6867   -0.3344    0.0000 H   0  0  0  0  0  0  0  0  0  0  0  0
  1 18  1  0  0  0  0
  1 28  1  0  0  0  0
  2 29  2  0  0  0  0
  3 30  2  0  0  0  0
  4 19  1  0  0  0  0
  4 29  1  0  0  0  0
  4 30  1  0  0  0  0
  5  7  1  0  0  0  0
  5  8  1  0  0  0  0
  5  9  1  0  0  0  0
  5 10  1  0  0  0  0
  6  7  1  0  0  0  0
  6 11  1  0  0  0  0
  6 12  1  0  0  0  0
  6 13  1  0  0  0  0
  7 43  1  0  0  0  0
  7 44  1  0  0  0  0
  8 14  2  0  0  0  0
  8 15  1  0  0  0  0
  9 45  1  0  0  0  0
  9 46  1  0  0  0  0
  9 47  1  0  0  0  0
 10 48  1  0  0  0  0
 10 49  1  0  0  0  0
 10 50  1  0  0  0  0
 11 51  1  0  0  0  0
 11 52  1  0  0  0  0
 11 53  1  0  0  0  0
 12 54  1  0  0  0  0
 12 55  1  0  0  0  0
 12 56  1  0  0  0  0
 13 57  1  0  0  0  0
 13 58  1  0  0  0  0
 13 59  1  0  0  0  0
 14 16  1  0  0  0  0
 14 60  1  0  0  0  0
 15 17  2  0  0  0  0
 15 61  1  0  0  0  0
 16 18  2  0  0  0  0
 16 62  1  0  0  0  0
 17 18  1  0  0  0  0
 17 63  1  0  0  0  0
 19 20  2  0  0  0  0
 19 21  1  0  0  0  0
 20 23  1  0  0  0  0
 20 31  1  0  0  0  0
 21 24  1  0  0  0  0
 21 32  2  0  0  0  0
 22 25  2  0  0  0  0
 22 26  1  0  0  0  0
 22 27  1  0  0  0  0
 23 35  1  0  0  0  0
 23 36  1  0  0  0  0
 23 64  1  0  0  0  0
 24 37  1  0  0  0  0
 24 38  1  0  0  0  0
 24 65  1  0  0  0  0
 25 29  1  0  0  0  0
 25 33  1  0  0  0  0
 26 28  2  0  0  0  0
 26 40  1  0  0  0  0
 27 30  1  0  0  0  0
 27 41  2  0  0  0  0
 28 34  1  0  0  0  0
 31 39  2  0  0  0  0
 31 66  1  0  0  0  0
 32 39  1  0  0  0  0
 32 67  1  0  0  0  0
 33 34  2  0  0  0  0
 33 68  1  0  0  0  0
 34 69  1  0  0  0  0
 35 70  1  0  0  0  0
 35 71  1  0  0  0  0
 35 72  1  0  0  0  0
 36 73  1  0  0  0  0
 36 74  1  0  0  0  0
 36 75  1  0  0  0  0
 37 76  1  0  0  0  0
 37 77  1  0  0  0  0
 37 78  1  0  0  0  0
 38 79  1  0  0  0  0
 38 80  1  0  0  0  0
 38 81  1  0  0  0  0
 39 82  1  0  0  0  0
 40 42  2  0  0  0  0
 40 83  1  0  0  0  0
 41 42  1  0  0  0  0
 41 84  1  0  0  0  0
 42 85  1  0  0  0  0
M  END
> <PUBCHEM_COMPOUND_CID>
58100386

> <PUBCHEM_COMPOUND_CANONICALIZED>
1

> <PUBCHEM_CACTVS_COMPLEXITY>
938

> <PUBCHEM_CACTVS_HBOND_ACCEPTOR>
3

> <PUBCHEM_CACTVS_HBOND_DONOR>
0

> <PUBCHEM_CACTVS_ROTATABLE_BOND>
8

> <PUBCHEM_CACTVS_SUBSKEYS>
AAADcfB+MAAAAAAAAAAAAAAAAAAAAAAAAAA8YMGCAAAAAADxVAAAHgAAAAAADwyBmAAyxsMABACIAiVSUACCCAAlIAAIiAEGTMgMJjLEtZuGOSjkxDHI6YeY3/LPoAADAAAaAABAAAYAADQAAAAAAAAAAA==

> <PUBCHEM_IUPAC_OPENEYE_NAME>
2-(2,6-diisopropylphenyl)-6-[4-(1,1,3,3-tetramethylbutyl)phenoxy]benzo[de]isoquinoline-1,3-dione

> <PUBCHEM_IUPAC_CAS_NAME>
2-[2,6-di(propan-2-yl)phenyl]-6-[4-(2,4,4-trimethylpentan-2-yl)phenoxy]benzo[de]isoquinoline-1,3-dione

> <PUBCHEM_IUPAC_NAME_MARKUP>
2-[2,6-di(propan-2-yl)phenyl]-6-[4-(2,4,4-trimethylpentan-2-yl)phenoxy]benzo[de]isoquinoline-1,3-dione

> <PUBCHEM_IUPAC_NAME>
2-[2,6-di(propan-2-yl)phenyl]-6-[4-(2,4,4-trimethylpentan-2-yl)phenoxy]benzo[de]isoquinoline-1,3-dione

> <PUBCHEM_IUPAC_SYSTEMATIC_NAME>
2-[2,6-di(propan-2-yl)phenyl]-6-[4-(2,4,4-trimethylpentan-2-yl)phenoxy]benzo[de]isoquinoline-1,3-dione

> <PUBCHEM_IUPAC_TRADITIONAL_NAME>
2-(2,6-diisopropylphenyl)-6-[4-(1,1,3,3-tetramethylbutyl)phenoxy]benzo[de]isoquinoline-1,3-quinone

> <PUBCHEM_IUPAC_INCHI>
InChI=1S/C38H43NO3/c1-23(2)27-12-10-13-28(24(3)4)34(27)39-35(40)30-15-11-14-29-32(21-20-31(33(29)30)36(39)41)42-26-18-16-25(17-19-26)38(8,9)22-37(5,6)7/h10-21,23-24H,22H2,1-9H3

> <PUBCHEM_IUPAC_INCHIKEY>
HLYXVMWDKPFROM-UHFFFAOYSA-N

> <PUBCHEM_XLOGP3_AA>
10.9

> <PUBCHEM_EXACT_MASS>
561.32429423

> <PUBCHEM_MOLECULAR_FORMULA>
C38H43NO3

> <PUBCHEM_MOLECULAR_WEIGHT>
561.8

> <PUBCHEM_SMILES>
CC(C)C1=C(C(=CC=C1)C(C)C)N2C(=O)C3=C4C(=C(C=C3)OC5=CC=C(C=C5)C(C)(C)CC(C)(C)C)C=CC=C4C2=O

> <PUBCHEM_OPENEYE_CAN_SMILES>
CC(C)C1=C(C(=CC=C1)C(C)C)N2C(=O)C3=C4C(=C(C=C3)OC5=CC=C(C=C5)C(C)(C)CC(C)(C)C)C=CC=C4C2=O

> <PUBCHEM_OPENEYE_ISO_SMILES>
CC(C)C1=C(C(=CC=C1)C(C)C)N2C(=O)C3=C4C(=C(C=C3)OC5=CC=C(C=C5)C(C)(C)CC(C)(C)C)C=CC=C4C2=O

> <PUBCHEM_CACTVS_TPSA>
46.6

> <PUBCHEM_MONOISOTOPIC_WEIGHT>
561.32429423

> <PUBCHEM_TOTAL_CHARGE>
0

> <PUBCHEM_HEAVY_ATOM_COUNT>
42

> <PUBCHEM_ATOM_DEF_STEREO_COUNT>
0

> <PUBCHEM_ATOM_UDEF_STEREO_COUNT>
0

> <PUBCHEM_BOND_DEF_STEREO_COUNT>
0

> <PUBCHEM_BOND_UDEF_STEREO_COUNT>
0

> <PUBCHEM_ISOTOPIC_ATOM_COUNT>
0

> <PUBCHEM_COMPONENT_COUNT>
1

> <PUBCHEM_CACTVS_TAUTO_COUNT>
-1

> <PUBCHEM_COORDINATE_TYPE>
1
5
255

> <PUBCHEM_BONDANNOTATIONS>
14  16  8
15  17  8
16  18  8
17  18  8
19  20  8
19  21  8
20  31  8
21  32  8
22  25  8
22  26  8
22  27  8
25  33  8
26  28  8
26  40  8
27  41  8
28  34  8
31  39  8
32  39  8
33  34  8
40  42  8
41  42  8
8  14  8
8  15  8

$$$$
