61058
  -OEChem-04042512342D

120119  0     1  0  0  0  0  0999 V2000
    7.1962    1.2500    0.0000 O   0  0  0  0  0  0  0  0  0  0  0  0
   30.5788   -1.2500    0.0000 O   0  0  0  0  0  0  0  0  0  0  0  0
   16.7224   -1.2500    0.0000 O   0  0  0  0  0  0  0  0  0  0  0  0
   21.0526    1.2500    0.0000 O   0  0  0  0  0  0  0  0  0  0  0  0
   17.5885    0.2500    0.0000 N   0  0  0  0  0  0  0  0  0  0  0  0
   20.1865   -0.2500    0.0000 N   0  0  0  0  0  0  0  0  0  0  0  0
    8.0622   -0.2500    0.0000 C   0  0  0  0  0  0  0  0  0  0  0  0
   29.7128    0.2500    0.0000 C   0  0  0  0  0  0  0  0  0  0  0  0
    8.9282    0.2500    0.0000 C   0  0  0  0  0  0  0  0  0  0  0  0
   28.8468   -0.2500    0.0000 C   0  0  0  0  0  0  0  0  0  0  0  0
    7.1962    0.2500    0.0000 C   0  0  3  0  0  0  0  0  0  0  0  0
   30.5788   -0.2500    0.0000 C   0  0  3  0  0  0  0  0  0  0  0  0
    9.7942   -0.2500    0.0000 C   0  0  0  0  0  0  0  0  0  0  0  0
   27.9808    0.2500    0.0000 C   0  0  0  0  0  0  0  0  0  0  0  0
   10.6603    0.2500    0.0000 C   0  0  0  0  0  0  0  0  0  0  0  0
   27.1147   -0.2500    0.0000 C   0  0  0  0  0  0  0  0  0  0  0  0
    6.3301   -0.2500    0.0000 C   0  0  0  0  0  0  0  0  0  0  0  0
   31.4449    0.2500    0.0000 C   0  0  0  0  0  0  0  0  0  0  0  0
   11.5263   -0.2500    0.0000 C   0  0  0  0  0  0  0  0  0  0  0  0
   26.2487    0.2500    0.0000 C   0  0  0  0  0  0  0  0  0  0  0  0
   12.3923    0.2500    0.0000 C   0  0  0  0  0  0  0  0  0  0  0  0
   25.3827   -0.2500    0.0000 C   0  0  0  0  0  0  0  0  0  0  0  0
    5.4641    0.2500    0.0000 C   0  0  0  0  0  0  0  0  0  0  0  0
   32.3109   -0.2500    0.0000 C   0  0  0  0  0  0  0  0  0  0  0  0
   13.2583   -0.2500    0.0000 C   0  0  0  0  0  0  0  0  0  0  0  0
   24.5167    0.2500    0.0000 C   0  0  0  0  0  0  0  0  0  0  0  0
    4.5981   -0.2500    0.0000 C   0  0  0  0  0  0  0  0  0  0  0  0
   33.1769    0.2500    0.0000 C   0  0  0  0  0  0  0  0  0  0  0  0
   14.1244    0.2500    0.0000 C   0  0  0  0  0  0  0  0  0  0  0  0
   23.6506   -0.2500    0.0000 C   0  0  0  0  0  0  0  0  0  0  0  0
    3.7320    0.2500    0.0000 C   0  0  0  0  0  0  0  0  0  0  0  0
   34.0429   -0.2500    0.0000 C   0  0  0  0  0  0  0  0  0  0  0  0
   14.9904   -0.2500    0.0000 C   0  0  0  0  0  0  0  0  0  0  0  0
   22.7846    0.2500    0.0000 C   0  0  0  0  0  0  0  0  0  0  0  0
    2.8660   -0.2500    0.0000 C   0  0  0  0  0  0  0  0  0  0  0  0
   34.9090    0.2500    0.0000 C   0  0  0  0  0  0  0  0  0  0  0  0
   15.8564    0.2500    0.0000 C   0  0  0  0  0  0  0  0  0  0  0  0
   21.9186   -0.2500    0.0000 C   0  0  0  0  0  0  0  0  0  0  0  0
    2.0000    0.2500    0.0000 C   0  0  0  0  0  0  0  0  0  0  0  0
   35.7750   -0.2500    0.0000 C   0  0  0  0  0  0  0  0  0  0  0  0
   16.7224   -0.2500    0.0000 C   0  0  0  0  0  0  0  0  0  0  0  0
   21.0526    0.2500    0.0000 C   0  0  0  0  0  0  0  0  0  0  0  0
   18.4545   -0.2500    0.0000 C   0  0  0  0  0  0  0  0  0  0  0  0
   19.3205    0.2500    0.0000 C   0  0  0  0  0  0  0  0  0  0  0  0
    7.6636   -0.7249    0.0000 H   0  0  0  0  0  0  0  0  0  0  0  0
    8.4607   -0.7249    0.0000 H   0  0  0  0  0  0  0  0  0  0  0  0
   30.1113    0.7249    0.0000 H   0  0  0  0  0  0  0  0  0  0  0  0
   29.3143    0.7249    0.0000 H   0  0  0  0  0  0  0  0  0  0  0  0
    9.3267    0.7249    0.0000 H   0  0  0  0  0  0  0  0  0  0  0  0
    8.5297    0.7249    0.0000 H   0  0  0  0  0  0  0  0  0  0  0  0
   28.4483   -0.7249    0.0000 H   0  0  0  0  0  0  0  0  0  0  0  0
   29.2453   -0.7249    0.0000 H   0  0  0  0  0  0  0  0  0  0  0  0
    6.6592    0.5600    0.0000 H   0  0  0  0  0  0  0  0  0  0  0  0
   31.1158   -0.5600    0.0000 H   0  0  0  0  0  0  0  0  0  0  0  0
    9.3957   -0.7249    0.0000 H   0  0  0  0  0  0  0  0  0  0  0  0
   10.1928   -0.7249    0.0000 H   0  0  0  0  0  0  0  0  0  0  0  0
   28.3793    0.7249    0.0000 H   0  0  0  0  0  0  0  0  0  0  0  0
   27.5822    0.7249    0.0000 H   0  0  0  0  0  0  0  0  0  0  0  0
   11.0588    0.7249    0.0000 H   0  0  0  0  0  0  0  0  0  0  0  0
   10.2617    0.7249    0.0000 H   0  0  0  0  0  0  0  0  0  0  0  0
   26.7162   -0.7249    0.0000 H   0  0  0  0  0  0  0  0  0  0  0  0
   27.5133   -0.7249    0.0000 H   0  0  0  0  0  0  0  0  0  0  0  0
    5.9316   -0.7249    0.0000 H   0  0  0  0  0  0  0  0  0  0  0  0
    6.7287   -0.7249    0.0000 H   0  0  0  0  0  0  0  0  0  0  0  0
   31.8434    0.7249    0.0000 H   0  0  0  0  0  0  0  0  0  0  0  0
   31.0463    0.7249    0.0000 H   0  0  0  0  0  0  0  0  0  0  0  0
   11.1278   -0.7249    0.0000 H   0  0  0  0  0  0  0  0  0  0  0  0
   11.9248   -0.7249    0.0000 H   0  0  0  0  0  0  0  0  0  0  0  0
   26.6472    0.7249    0.0000 H   0  0  0  0  0  0  0  0  0  0  0  0
   25.8502    0.7249    0.0000 H   0  0  0  0  0  0  0  0  0  0  0  0
   12.7908    0.7249    0.0000 H   0  0  0  0  0  0  0  0  0  0  0  0
   11.9938    0.7249    0.0000 H   0  0  0  0  0  0  0  0  0  0  0  0
   24.9842   -0.7249    0.0000 H   0  0  0  0  0  0  0  0  0  0  0  0
   25.7812   -0.7249    0.0000 H   0  0  0  0  0  0  0  0  0  0  0  0
    5.8626    0.7249    0.0000 H   0  0  0  0  0  0  0  0  0  0  0  0
    5.0656    0.7249    0.0000 H   0  0  0  0  0  0  0  0  0  0  0  0
   31.9124   -0.7249    0.0000 H   0  0  0  0  0  0  0  0  0  0  0  0
   32.7094   -0.7249    0.0000 H   0  0  0  0  0  0  0  0  0  0  0  0
   12.8598   -0.7249    0.0000 H   0  0  0  0  0  0  0  0  0  0  0  0
   13.6569   -0.7249    0.0000 H   0  0  0  0  0  0  0  0  0  0  0  0
   24.9152    0.7249    0.0000 H   0  0  0  0  0  0  0  0  0  0  0  0
   24.1181    0.7249    0.0000 H   0  0  0  0  0  0  0  0  0  0  0  0
    4.1996   -0.7249    0.0000 H   0  0  0  0  0  0  0  0  0  0  0  0
    4.9966   -0.7249    0.0000 H   0  0  0  0  0  0  0  0  0  0  0  0
   33.5754    0.7249    0.0000 H   0  0  0  0  0  0  0  0  0  0  0  0
   32.7784    0.7249    0.0000 H   0  0  0  0  0  0  0  0  0  0  0  0
   14.5229    0.7249    0.0000 H   0  0  0  0  0  0  0  0  0  0  0  0
   13.7258    0.7249    0.0000 H   0  0  0  0  0  0  0  0  0  0  0  0
   23.2521   -0.7249    0.0000 H   0  0  0  0  0  0  0  0  0  0  0  0
   24.0492   -0.7249    0.0000 H   0  0  0  0  0  0  0  0  0  0  0  0
    4.1306    0.7249    0.0000 H   0  0  0  0  0  0  0  0  0  0  0  0
    3.3335    0.7249    0.0000 H   0  0  0  0  0  0  0  0  0  0  0  0
   33.6444   -0.7249    0.0000 H   0  0  0  0  0  0  0  0  0  0  0  0
   34.4415   -0.7249    0.0000 H   0  0  0  0  0  0  0  0  0  0  0  0
   14.5919   -0.7249    0.0000 H   0  0  0  0  0  0  0  0  0  0  0  0
   15.3889   -0.7249    0.0000 H   0  0  0  0  0  0  0  0  0  0  0  0
   23.1831    0.7249    0.0000 H   0  0  0  0  0  0  0  0  0  0  0  0
   22.3861    0.7249    0.0000 H   0  0  0  0  0  0  0  0  0  0  0  0
    6.6592    1.5600    0.0000 H   0  0  0  0  0  0  0  0  0  0  0  0
   31.1158   -1.5600    0.0000 H   0  0  0  0  0  0  0  0  0  0  0  0
    2.4675   -0.7249    0.0000 H   0  0  0  0  0  0  0  0  0  0  0  0
    3.2646   -0.7249    0.0000 H   0  0  0  0  0  0  0  0  0  0  0  0
   35.3075    0.7249    0.0000 H   0  0  0  0  0  0  0  0  0  0  0  0
   34.5104    0.7249    0.0000 H   0  0  0  0  0  0  0  0  0  0  0  0
   16.2549    0.7249    0.0000 H   0  0  0  0  0  0  0  0  0  0  0  0
   15.4579    0.7249    0.0000 H   0  0  0  0  0  0  0  0  0  0  0  0
   21.5201   -0.7249    0.0000 H   0  0  0  0  0  0  0  0  0  0  0  0
   22.3171   -0.7249    0.0000 H   0  0  0  0  0  0  0  0  0  0  0  0
    2.3100    0.7869    0.0000 H   0  0  0  0  0  0  0  0  0  0  0  0
    1.4631    0.5600    0.0000 H   0  0  0  0  0  0  0  0  0  0  0  0
    1.6900   -0.2869    0.0000 H   0  0  0  0  0  0  0  0  0  0  0  0
   35.4650   -0.7869    0.0000 H   0  0  0  0  0  0  0  0  0  0  0  0
   36.3119   -0.5600    0.0000 H   0  0  0  0  0  0  0  0  0  0  0  0
   36.0850    0.2869    0.0000 H   0  0  0  0  0  0  0  0  0  0  0  0
   18.0560   -0.7249    0.0000 H   0  0  0  0  0  0  0  0  0  0  0  0
   18.8530   -0.7249    0.0000 H   0  0  0  0  0  0  0  0  0  0  0  0
   19.7190    0.7249    0.0000 H   0  0  0  0  0  0  0  0  0  0  0  0
   18.9220    0.7249    0.0000 H   0  0  0  0  0  0  0  0  0  0  0  0
   17.5885    0.8700    0.0000 H   0  0  0  0  0  0  0  0  0  0  0  0
   20.1865   -0.8700    0.0000 H   0  0  0  0  0  0  0  0  0  0  0  0
  1 11  1  0  0  0  0
  1 99  1  0  0  0  0
  2 12  1  0  0  0  0
  2100  1  0  0  0  0
  3 41  2  0  0  0  0
  4 42  2  0  0  0  0
  5 41  1  0  0  0  0
  5 43  1  0  0  0  0
  5119  1  0  0  0  0
  6 42  1  0  0  0  0
  6 44  1  0  0  0  0
  6120  1  0  0  0  0
  7  9  1  0  0  0  0
  7 11  1  0  0  0  0
  7 45  1  0  0  0  0
  7 46  1  0  0  0  0
  8 10  1  0  0  0  0
  8 12  1  0  0  0  0
  8 47  1  0  0  0  0
  8 48  1  0  0  0  0
  9 13  1  0  0  0  0
  9 49  1  0  0  0  0
  9 50  1  0  0  0  0
 10 14  1  0  0  0  0
 10 51  1  0  0  0  0
 10 52  1  0  0  0  0
 11 17  1  0  0  0  0
 11 53  1  0  0  0  0
 12 18  1  0  0  0  0
 12 54  1  0  0  0  0
 13 15  1  0  0  0  0
 13 55  1  0  0  0  0
 13 56  1  0  0  0  0
 14 16  1  0  0  0  0
 14 57  1  0  0  0  0
 14 58  1  0  0  0  0
 15 19  1  0  0  0  0
 15 59  1  0  0  0  0
 15 60  1  0  0  0  0
 16 20  1  0  0  0  0
 16 61  1  0  0  0  0
 16 62  1  0  0  0  0
 17 23  1  0  0  0  0
 17 63  1  0  0  0  0
 17 64  1  0  0  0  0
 18 24  1  0  0  0  0
 18 65  1  0  0  0  0
 18 66  1  0  0  0  0
 19 21  1  0  0  0  0
 19 67  1  0  0  0  0
 19 68  1  0  0  0  0
 20 22  1  0  0  0  0
 20 69  1  0  0  0  0
 20 70  1  0  0  0  0
 21 25  1  0  0  0  0
 21 71  1  0  0  0  0
 21 72  1  0  0  0  0
 22 26  1  0  0  0  0
 22 73  1  0  0  0  0
 22 74  1  0  0  0  0
 23 27  1  0  0  0  0
 23 75  1  0  0  0  0
 23 76  1  0  0  0  0
 24 28  1  0  0  0  0
 24 77  1  0  0  0  0
 24 78  1  0  0  0  0
 25 29  1  0  0  0  0
 25 79  1  0  0  0  0
 25 80  1  0  0  0  0
 26 30  1  0  0  0  0
 26 81  1  0  0  0  0
 26 82  1  0  0  0  0
 27 31  1  0  0  0  0
 27 83  1  0  0  0  0
 27 84  1  0  0  0  0
 28 32  1  0  0  0  0
 28 85  1  0  0  0  0
 28 86  1  0  0  0  0
 29 33  1  0  0  0  0
 29 87  1  0  0  0  0
 29 88  1  0  0  0  0
 30 34  1  0  0  0  0
 30 89  1  0  0  0  0
 30 90  1  0  0  0  0
 31 35  1  0  0  0  0
 31 91  1  0  0  0  0
 31 92  1  0  0  0  0
 32 36  1  0  0  0  0
 32 93  1  0  0  0  0
 32 94  1  0  0  0  0
 33 37  1  0  0  0  0
 33 95  1  0  0  0  0
 33 96  1  0  0  0  0
 34 38  1  0  0  0  0
 34 97  1  0  0  0  0
 34 98  1  0  0  0  0
 35 39  1  0  0  0  0
 35101  1  0  0  0  0
 35102  1  0  0  0  0
 36 40  1  0  0  0  0
 36103  1  0  0  0  0
 36104  1  0  0  0  0
 37 41  1  0  0  0  0
 37105  1  0  0  0  0
 37106  1  0  0  0  0
 38 42  1  0  0  0  0
 38107  1  0  0  0  0
 38108  1  0  0  0  0
 39109  1  0  0  0  0
 39110  1  0  0  0  0
 39111  1  0  0  0  0
 40112  1  0  0  0  0
 40113  1  0  0  0  0
 40114  1  0  0  0  0
 43 44  1  0  0  0  0
 43115  1  0  0  0  0
 43116  1  0  0  0  0
 44117  1  0  0  0  0
 44118  1  0  0  0  0
M  END
> <PUBCHEM_COMPOUND_CID>
61058

> <PUBCHEM_COMPOUND_CANONICALIZED>
1

> <PUBCHEM_CACTVS_COMPLEXITY>
564

> <PUBCHEM_CACTVS_HBOND_ACCEPTOR>
4

> <PUBCHEM_CACTVS_HBOND_DONOR>
4

> <PUBCHEM_CACTVS_ROTATABLE_BOND>
35

> <PUBCHEM_CACTVS_SUBSKEYS>
AAADcfB/OAAAAAAAAAAAAAAAAAAAAAAAAAAAAAAAAAAAAAAAAAAAHgAQCAAACBThgAYCAALAAgAIAAEQEAAAAAAAAAAAAIEIAAAAUBIAgAAUQAAEFgCAAAGYyKCAAAAAAAAAAAAAAAAAAAAAAAAAAAAAAA==

> <PUBCHEM_IUPAC_OPENEYE_NAME>
12-hydroxy-N-[2-(12-hydroxyoctadecanoylamino)ethyl]octadecanamide

> <PUBCHEM_IUPAC_CAS_NAME>
12-hydroxy-N-[2-[(12-hydroxy-1-oxooctadecyl)amino]ethyl]octadecanamide

> <PUBCHEM_IUPAC_NAME_MARKUP>
12-hydroxy-<I>N</I>-[2-(12-hydroxyoctadecanoylamino)ethyl]octadecanamide

> <PUBCHEM_IUPAC_NAME>
12-hydroxy-N-[2-(12-hydroxyoctadecanoylamino)ethyl]octadecanamide

> <PUBCHEM_IUPAC_SYSTEMATIC_NAME>
12-oxidanyl-N-[2-(12-oxidanyloctadecanoylamino)ethyl]octadecanamide

> <PUBCHEM_IUPAC_TRADITIONAL_NAME>
12-hydroxy-N-[2-(12-hydroxyoctadecanoylamino)ethyl]stearamide

> <PUBCHEM_IUPAC_INCHI>
InChI=1S/C38H76N2O4/c1-3-5-7-21-27-35(41)29-23-17-13-9-11-15-19-25-31-37(43)39-33-34-40-38(44)32-26-20-16-12-10-14-18-24-30-36(42)28-22-8-6-4-2/h35-36,41-42H,3-34H2,1-2H3,(H,39,43)(H,40,44)

> <PUBCHEM_IUPAC_INCHIKEY>
YLWQQYRYYZPZLJ-UHFFFAOYSA-N

> <PUBCHEM_XLOGP3_AA>
11.9

> <PUBCHEM_EXACT_MASS>
624.58050891

> <PUBCHEM_MOLECULAR_FORMULA>
C38H76N2O4

> <PUBCHEM_MOLECULAR_WEIGHT>
625.0

> <PUBCHEM_SMILES>
CCCCCCC(CCCCCCCCCCC(=O)NCCNC(=O)CCCCCCCCCCC(CCCCCC)O)O

> <PUBCHEM_OPENEYE_CAN_SMILES>
CCCCCCC(CCCCCCCCCCC(=O)NCCNC(=O)CCCCCCCCCCC(CCCCCC)O)O

> <PUBCHEM_OPENEYE_ISO_SMILES>
CCCCCCC(CCCCCCCCCCC(=O)NCCNC(=O)CCCCCCCCCCC(CCCCCC)O)O

> <PUBCHEM_CACTVS_TPSA>
98.7

> <PUBCHEM_MONOISOTOPIC_WEIGHT>
624.58050891

> <PUBCHEM_TOTAL_CHARGE>
0

> <PUBCHEM_HEAVY_ATOM_COUNT>
44

> <PUBCHEM_ATOM_DEF_STEREO_COUNT>
0

> <PUBCHEM_ATOM_UDEF_STEREO_COUNT>
2

> <PUBCHEM_BOND_DEF_STEREO_COUNT>
0

> <PUBCHEM_BOND_UDEF_STEREO_COUNT>
0

> <PUBCHEM_ISOTOPIC_ATOM_COUNT>
0

> <PUBCHEM_COMPONENT_COUNT>
1

> <PUBCHEM_CACTVS_TAUTO_COUNT>
-1

> <PUBCHEM_COORDINATE_TYPE>
1
5
255

> <PUBCHEM_BONDANNOTATIONS>
11  1  3
12  2  3

$$$$
