61459
  -OEChem-04042505582D

  7  4  0     0  0  0  0  0  0999 V2000
    4.5981   -0.2500    0.0000 Mn  0  2  0  0  0  0  0  0  0  0  0  0
    6.3301   -0.2500    0.0000 P   0  0  0  0  0  0  0  0  0  0  0  0
    2.8660   -0.2500    0.0000 P   0  0  0  0  0  0  0  0  0  0  0  0
    5.4641    0.2500    0.0000 O   0  5  0  0  0  0  0  0  0  0  0  0
    3.7320    0.2500    0.0000 O   0  5  0  0  0  0  0  0  0  0  0  0
    7.1962    0.2500    0.0000 O   0  0  0  0  0  0  0  0  0  0  0  0
    2.0000    0.2500    0.0000 O   0  0  0  0  0  0  0  0  0  0  0  0
  2  4  1  0  0  0  0
  2  6  2  0  0  0  0
  3  5  1  0  0  0  0
  3  7  2  0  0  0  0
M  CHG  3   1   2   4  -1   5  -1
M  END
> <PUBCHEM_COMPOUND_CID>
61459

> <PUBCHEM_COMPOUND_CANONICALIZED>
1

> <PUBCHEM_CACTVS_COMPLEXITY>
7.5

> <PUBCHEM_CACTVS_HBOND_ACCEPTOR>
4

> <PUBCHEM_CACTVS_HBOND_DONOR>
0

> <PUBCHEM_CACTVS_ROTATABLE_BOND>
0

> <PUBCHEM_CACTVS_SUBSKEYS>
AAADcQAAOAMAAABAAAAAAAAAAAAAAAAAAAAAAAAAAAAAAAAAAAAAAAAAACAAAAAAAAAAAAAAABAAQAAAAIAAAAAAAAAAAAAAAAAAAAAAAAAAAAAAAAAAAAAAAAAAAAAAAAAAAAAAAAAAAAAAAAAAAAAAAA==

> <PUBCHEM_IUPAC_INCHI>
InChI=1S/Mn.2HO2P/c;2*1-3-2/h;2*(H,1,2)/q+2;;/p-2

> <PUBCHEM_IUPAC_INCHIKEY>
FLFJVPPJGJSHMF-UHFFFAOYSA-L

> <PUBCHEM_EXACT_MASS>
180.865226

> <PUBCHEM_MOLECULAR_FORMULA>
MnO4P2

> <PUBCHEM_MOLECULAR_WEIGHT>
180.883

> <PUBCHEM_SMILES>
[O-]P=O.[O-]P=O.[Mn+2]

> <PUBCHEM_OPENEYE_CAN_SMILES>
[O-]P=O.[O-]P=O.[Mn+2]

> <PUBCHEM_OPENEYE_ISO_SMILES>
[O-]P=O.[O-]P=O.[Mn+2]

> <PUBCHEM_CACTVS_TPSA>
80.3

> <PUBCHEM_MONOISOTOPIC_WEIGHT>
180.865226

> <PUBCHEM_TOTAL_CHARGE>
0

> <PUBCHEM_HEAVY_ATOM_COUNT>
7

> <PUBCHEM_ATOM_DEF_STEREO_COUNT>
0

> <PUBCHEM_ATOM_UDEF_STEREO_COUNT>
0

> <PUBCHEM_BOND_DEF_STEREO_COUNT>
0

> <PUBCHEM_BOND_UDEF_STEREO_COUNT>
0

> <PUBCHEM_ISOTOPIC_ATOM_COUNT>
0

> <PUBCHEM_COMPONENT_COUNT>
3

> <PUBCHEM_CACTVS_TAUTO_COUNT>
-1

> <PUBCHEM_COORDINATE_TYPE>
1
5
255

$$$$
