61729
  -OEChem-04042512262D

 57 64  0     0  0  0  0  0  0999 V2000
    9.4551   -3.5301    0.0000 Br  0  0  0  0  0  0  0  0  0  0  0  0
    9.4004    3.4978    0.0000 Br  0  0  0  0  0  0  0  0  0  0  0  0
    6.3879   -5.3010    0.0000 Br  0  0  0  0  0  0  0  0  0  0  0  0
    6.4544    5.3010    0.0000 Br  0  0  0  0  0  0  0  0  0  0  0  0
    3.7047    1.9935    0.0000 Br  0  0  0  0  0  0  0  0  0  0  0  0
   12.8120    0.9694    0.0000 Br  0  0  0  0  0  0  0  0  0  0  0  0
    7.3721    0.0251    0.0000 Cu  0  2  0  0  0  0  0  0  0  0  0  0
    5.3654   -3.5301    0.0000 Cl  0  0  0  0  0  0  0  0  0  0  0  0
    5.4133    3.6000    0.0000 Cl  0  0  0  0  0  0  0  0  0  0  0  0
    8.4327   -5.3010    0.0000 Cl  0  0  0  0  0  0  0  0  0  0  0  0
    8.4479    5.2498    0.0000 Cl  0  0  0  0  0  0  0  0  0  0  0  0
    3.7047   -1.9433    0.0000 Cl  0  0  0  0  0  0  0  0  0  0  0  0
   10.9666   -2.0542    0.0000 Cl  0  0  0  0  0  0  0  0  0  0  0  0
   11.0663    2.0349    0.0000 Cl  0  0  0  0  0  0  0  0  0  0  0  0
    2.0000   -0.9591    0.0000 Cl  0  0  0  0  0  0  0  0  0  0  0  0
    2.0000    1.0093    0.0000 Cl  0  0  0  0  0  0  0  0  0  0  0  0
   12.7621   -1.0751    0.0000 Cl  0  0  0  0  0  0  0  0  0  0  0  0
    7.3721   -1.1216    0.0000 N   0  5  0  0  0  0  0  0  0  0  0  0
    7.3721    1.1719    0.0000 N   0  5  0  0  0  0  0  0  0  0  0  0
    5.6392   -1.5804    0.0000 N   0  0  0  0  0  0  0  0  0  0  0  0
    9.0540   -1.6313    0.0000 N   0  0  0  0  0  0  0  0  0  0  0  0
    5.7156    1.7580    0.0000 N   0  0  0  0  0  0  0  0  0  0  0  0
    9.0540    1.7835    0.0000 N   0  0  0  0  0  0  0  0  0  0  0  0
    6.2253    0.0251    0.0000 N   0  0  0  0  0  0  0  0  0  0  0  0
    8.5188    0.0251    0.0000 N   0  0  0  0  0  0  0  0  0  0  0  0
    6.5612   -1.9326    0.0000 C   0  0  0  0  0  0  0  0  0  0  0  0
    8.1830   -1.9326    0.0000 C   0  0  0  0  0  0  0  0  0  0  0  0
    6.5612    1.9828    0.0000 C   0  0  0  0  0  0  0  0  0  0  0  0
    8.1830    1.9828    0.0000 C   0  0  0  0  0  0  0  0  0  0  0  0
    6.8879   -2.6252    0.0000 C   0  0  0  0  0  0  0  0  0  0  0  0
    7.9327   -2.6252    0.0000 C   0  0  0  0  0  0  0  0  0  0  0  0
    6.8879    2.7010    0.0000 C   0  0  0  0  0  0  0  0  0  0  0  0
    7.8817    2.6755    0.0000 C   0  0  0  0  0  0  0  0  0  0  0  0
    5.4144   -0.7858    0.0000 C   0  0  0  0  0  0  0  0  0  0  0  0
    9.3297   -0.7858    0.0000 C   0  0  0  0  0  0  0  0  0  0  0  0
    5.4144    0.8360    0.0000 C   0  0  0  0  0  0  0  0  0  0  0  0
    9.3297    0.8360    0.0000 C   0  0  0  0  0  0  0  0  0  0  0  0
    4.5433   -0.4591    0.0000 C   0  0  0  0  0  0  0  0  0  0  0  0
    4.5433    0.5093    0.0000 C   0  0  0  0  0  0  0  0  0  0  0  0
   10.0988   -0.5100    0.0000 C   0  0  0  0  0  0  0  0  0  0  0  0
   10.1243    0.5348    0.0000 C   0  0  0  0  0  0  0  0  0  0  0  0
    6.3654   -3.5301    0.0000 C   0  0  0  0  0  0  0  0  0  0  0  0
    8.4551   -3.5301    0.0000 C   0  0  0  0  0  0  0  0  0  0  0  0
    6.4130    3.5744    0.0000 C   0  0  0  0  0  0  0  0  0  0  0  0
    8.4007    3.5234    0.0000 C   0  0  0  0  0  0  0  0  0  0  0  0
    6.8879   -4.4349    0.0000 C   0  0  0  0  0  0  0  0  0  0  0  0
    7.9327   -4.4349    0.0000 C   0  0  0  0  0  0  0  0  0  0  0  0
    6.9320    4.4224    0.0000 C   0  0  0  0  0  0  0  0  0  0  0  0
    7.9259    4.3969    0.0000 C   0  0  0  0  0  0  0  0  0  0  0  0
    3.7047   -0.9433    0.0000 C   0  0  0  0  0  0  0  0  0  0  0  0
    3.7047    0.9935    0.0000 C   0  0  0  0  0  0  0  0  0  0  0  0
   10.9910   -1.0545    0.0000 C   0  0  0  0  0  0  0  0  0  0  0  0
   11.0419    1.0352    0.0000 C   0  0  0  0  0  0  0  0  0  0  0  0
    2.8660   -0.4591    0.0000 C   0  0  0  0  0  0  0  0  0  0  0  0
    2.8660    0.5093    0.0000 C   0  0  0  0  0  0  0  0  0  0  0  0
   11.9086   -0.5542    0.0000 C   0  0  0  0  0  0  0  0  0  0  0  0
   11.9340    0.4907    0.0000 C   0  0  0  0  0  0  0  0  0  0  0  0
  1 43  1  0  0  0  0
  2 45  1  0  0  0  0
  3 46  1  0  0  0  0
  4 48  1  0  0  0  0
  5 51  1  0  0  0  0
  6 57  1  0  0  0  0
  8 42  1  0  0  0  0
  9 44  1  0  0  0  0
 10 47  1  0  0  0  0
 11 49  1  0  0  0  0
 12 50  1  0  0  0  0
 13 52  1  0  0  0  0
 14 53  1  0  0  0  0
 15 54  1  0  0  0  0
 16 55  1  0  0  0  0
 17 56  1  0  0  0  0
 18 26  1  0  0  0  0
 18 27  1  0  0  0  0
 19 28  1  0  0  0  0
 19 29  1  0  0  0  0
 20 26  2  0  0  0  0
 20 34  1  0  0  0  0
 21 27  2  0  0  0  0
 21 35  1  0  0  0  0
 22 28  1  0  0  0  0
 22 36  2  0  0  0  0
 23 29  1  0  0  0  0
 23 37  2  0  0  0  0
 24 34  2  0  0  0  0
 24 36  1  0  0  0  0
 25 35  2  0  0  0  0
 25 37  1  0  0  0  0
 26 30  1  0  0  0  0
 27 31  1  0  0  0  0
 28 32  2  0  0  0  0
 29 33  2  0  0  0  0
 30 31  2  0  0  0  0
 30 42  1  0  0  0  0
 31 43  1  0  0  0  0
 32 33  1  0  0  0  0
 32 44  1  0  0  0  0
 33 45  1  0  0  0  0
 34 38  1  0  0  0  0
 35 40  1  0  0  0  0
 36 39  1  0  0  0  0
 37 41  1  0  0  0  0
 38 39  2  0  0  0  0
 38 50  1  0  0  0  0
 39 51  1  0  0  0  0
 40 41  2  0  0  0  0
 40 52  1  0  0  0  0
 41 53  1  0  0  0  0
 42 46  2  0  0  0  0
 43 47  2  0  0  0  0
 44 48  2  0  0  0  0
 45 49  2  0  0  0  0
 46 47  1  0  0  0  0
 48 49  1  0  0  0  0
 50 54  2  0  0  0  0
 51 55  2  0  0  0  0
 52 56  2  0  0  0  0
 53 57  2  0  0  0  0
 54 55  1  0  0  0  0
 56 57  1  0  0  0  0
M  CHG  3   7   2  18  -1  19  -1
M  END
> <PUBCHEM_COMPOUND_CID>
61729

> <PUBCHEM_COMPOUND_CANONICALIZED>
1

> <PUBCHEM_CACTVS_COMPLEXITY>
1860

> <PUBCHEM_CACTVS_HBOND_ACCEPTOR>
4

> <PUBCHEM_CACTVS_HBOND_DONOR>
0

> <PUBCHEM_CACTVS_ROTATABLE_BOND>
0

> <PUBCHEM_CACTVS_SUBSKEYS>
AAADcQB/wAAHnAAEAAAAAAAAAAAAAWLECAAwYMGAAAAAAFiB9AAADAJAAAABrAIBGiABsNIIEACgAgJgZACCgCkhBCQBmmAgRriIIGLBmpGEIAhggALIyjcQgIAOhgAYMADxgAYMADBgAeMADAAAAAAAAA==

> <PUBCHEM_IUPAC_OPENEYE_NAME>
copper;5,7,14,24,26,34-hexabromo-6,8,15,16,17,23,25,32,33,35-decachloro-2,11,20,29,37,39-hexaza-38,40-diazanidanonacyclo[28.6.1.13,10.112,19.121,28.04,9.013,18.022,27.031,36]tetraconta-1,3,5,7,9,11,13(18),14,16,19(39),20,22(27),23,25,28,30(37),31(36),32,34-nonadecaene

> <PUBCHEM_IUPAC_CAS_NAME>
copper;5,7,14,24,26,34-hexabromo-6,8,15,16,17,23,25,32,33,35-decachloro-2,11,20,29,37,39-hexaza-38,40-diazanidanonacyclo[28.6.1.13,10.112,19.121,28.04,9.013,18.022,27.031,36]tetraconta-1,3,5,7,9,11,13(18),14,16,19(39),20,22(27),23,25,28,30(37),31(36),32,34-nonadecaene

> <PUBCHEM_IUPAC_NAME_MARKUP>
copper;5,7,14,24,26,34-hexabromo-6,8,15,16,17,23,25,32,33,35-decachloro-2,11,20,29,37,39-hexaza-38,40-diazanidanonacyclo[28.6.1.1<SUP>3,10</SUP>.1<SUP>12,19</SUP>.1<SUP>21,28</SUP>.0<SUP>4,9</SUP>.0<SUP>13,18</SUP>.0<SUP>22,27</SUP>.0<SUP>31,36</SUP>]tetraconta-1,3,5,7,9,11,13(18),14,16,19(39),20,22(27),23,25,28,30(37),31(36),32,34-nonadecaene

> <PUBCHEM_IUPAC_NAME>
copper;5,7,14,24,26,34-hexabromo-6,8,15,16,17,23,25,32,33,35-decachloro-2,11,20,29,37,39-hexaza-38,40-diazanidanonacyclo[28.6.1.13,10.112,19.121,28.04,9.013,18.022,27.031,36]tetraconta-1,3,5,7,9,11,13(18),14,16,19(39),20,22(27),23,25,28,30(37),31(36),32,34-nonadecaene

> <PUBCHEM_IUPAC_SYSTEMATIC_NAME>
copper;5,7,14,24,26,34-hexakis(bromanyl)-6,8,15,16,17,23,25,32,33,35-decakis(chloranyl)-2,11,20,29,37,39-hexaza-38,40-diazanidanonacyclo[28.6.1.13,10.112,19.121,28.04,9.013,18.022,27.031,36]tetraconta-1,3,5,7,9,11,13(18),14,16,19(39),20,22(27),23,25,28,30(37),31(36),32,34-nonadecaene

> <PUBCHEM_IUPAC_TRADITIONAL_NAME>
cupric;5,7,14,24,26,34-hexabromo-6,8,15,16,17,23,25,32,33,35-decachloro-2,11,20,29,37,39-hexaza-38,40-diazanidanonacyclo[28.6.1.13,10.112,19.121,28.04,9.013,18.022,27.031,36]tetraconta-1,3,5,7,9,11,13(18),14,16,19(39),20,22(27),23,25,28,30(37),31(36),32,34-nonadecaene

> <PUBCHEM_IUPAC_INCHI>
InChI=1S/C32Br6Cl10N8.Cu/c33-9-1-4(15(39)12(36)20(9)44)28-49-25(1)53-31-7-8(18(42)23(47)14(38)17(7)41)32(56-31)54-26-2-5(16(40)13(37)21(45)10(2)34)29(50-26)55-30-6-3(27(51-28)52-30)11(35)22(46)24(48)19(6)43;/q-2;+2

> <PUBCHEM_IUPAC_INCHIKEY>
JRJLLXQDXANQEC-UHFFFAOYSA-N

> <PUBCHEM_EXACT_MASS>
1392.14069

> <PUBCHEM_MOLECULAR_FORMULA>
C32Br6Cl10CuN8

> <PUBCHEM_MOLECULAR_WEIGHT>
1393.9

> <PUBCHEM_SMILES>
C12=C(C(=C(C(=C1Cl)Br)Cl)Br)C3=NC4=NC(=NC5=C6C(=C([N-]5)N=C7C8=C(C(=C(C(=C8Br)Cl)Cl)Cl)C(=N7)N=C2[N-]3)C(=C(C(=C6Br)Cl)Br)Cl)C9=C4C(=C(C(=C9Cl)Br)Cl)Cl.[Cu+2]

> <PUBCHEM_OPENEYE_CAN_SMILES>
C12=C(C(=C(C(=C1Cl)Br)Cl)Br)C3=NC4=NC(=NC5=C6C(=C([N-]5)N=C7C8=C(C(=C(C(=C8Br)Cl)Cl)Cl)C(=N7)N=C2[N-]3)C(=C(C(=C6Br)Cl)Br)Cl)C9=C4C(=C(C(=C9Cl)Br)Cl)Cl.[Cu+2]

> <PUBCHEM_OPENEYE_ISO_SMILES>
C12=C(C(=C(C(=C1Cl)Br)Cl)Br)C3=NC4=NC(=NC5=C6C(=C([N-]5)N=C7C8=C(C(=C(C(=C8Br)Cl)Cl)Cl)C(=N7)N=C2[N-]3)C(=C(C(=C6Br)Cl)Br)Cl)C9=C4C(=C(C(=C9Cl)Br)Cl)Cl.[Cu+2]

> <PUBCHEM_CACTVS_TPSA>
76.2

> <PUBCHEM_MONOISOTOPIC_WEIGHT>
1382.15274

> <PUBCHEM_TOTAL_CHARGE>
0

> <PUBCHEM_HEAVY_ATOM_COUNT>
57

> <PUBCHEM_ATOM_DEF_STEREO_COUNT>
0

> <PUBCHEM_ATOM_UDEF_STEREO_COUNT>
0

> <PUBCHEM_BOND_DEF_STEREO_COUNT>
0

> <PUBCHEM_BOND_UDEF_STEREO_COUNT>
0

> <PUBCHEM_ISOTOPIC_ATOM_COUNT>
0

> <PUBCHEM_COMPONENT_COUNT>
2

> <PUBCHEM_CACTVS_TAUTO_COUNT>
-1

> <PUBCHEM_NONSTANDARDBOND>
7  18  6
7  19  6

> <PUBCHEM_COORDINATE_TYPE>
1
5
255

> <PUBCHEM_BONDANNOTATIONS>
18  26  8
18  27  8
19  28  8
19  29  8
20  26  8
20  34  8
21  27  8
21  35  8
22  28  8
22  36  8
23  29  8
23  37  8
24  34  8
24  36  8
25  35  8
25  37  8
26  30  8
27  31  8
28  32  8
29  33  8
30  31  8
30  42  8
31  43  8
32  33  8
32  44  8
33  45  8
38  39  8
38  50  8
39  51  8
40  41  8
40  52  8
41  53  8
42  46  8
43  47  8
44  48  8
45  49  8
46  47  8
48  49  8
50  54  8
51  55  8
52  56  8
53  57  8
54  55  8
56  57  8

$$$$
