61833
  -OEChem-04042505502D

 10  6  0     0  0  0  0  0  0999 V2000
    1.7071    0.0000    0.0000 Ca  0  2  0  0  0  0  0  0  0  0  0  0
    1.7071    3.7071    0.0000 Mg  0  2  0  0  0  0  0  0  0  0  0  0
    0.7071    0.0000    0.0000 O   0  5  0  0  0  0  0  0  0  0  0  0
    1.7071    1.0000    0.0000 O   0  5  0  0  0  0  0  0  0  0  0  0
    0.7071    3.7071    0.0000 O   0  5  0  0  0  0  0  0  0  0  0  0
    1.7071    4.7071    0.0000 O   0  5  0  0  0  0  0  0  0  0  0  0
    0.0000    1.7071    0.0000 O   0  0  0  0  0  0  0  0  0  0  0  0
    0.0000    5.4142    0.0000 O   0  0  0  0  0  0  0  0  0  0  0  0
    0.7071    1.0000    0.0000 C   0  0  0  0  0  0  0  0  0  0  0  0
    0.7071    4.7071    0.0000 C   0  0  0  0  0  0  0  0  0  0  0  0
  3  9  1  0  0  0  0
  4  9  1  0  0  0  0
  5 10  1  0  0  0  0
  6 10  1  0  0  0  0
  7  9  2  0  0  0  0
  8 10  2  0  0  0  0
M  CHG  6   1   2   2   2   3  -1   4  -1   5  -1   6  -1
M  END
> <PUBCHEM_COMPOUND_CID>
61833

> <PUBCHEM_COMPOUND_CANONICALIZED>
1

> <PUBCHEM_CACTVS_COMPLEXITY>
18.8

> <PUBCHEM_CACTVS_HBOND_ACCEPTOR>
6

> <PUBCHEM_CACTVS_HBOND_DONOR>
0

> <PUBCHEM_CACTVS_ROTATABLE_BOND>
0

> <PUBCHEM_CACTVS_SUBSKEYS>
AAADcQBAOAAAACgAAAAAAAAAAAAAAAAAAAAAAAAAAAAAAAAAAAAAAgAAAAAAAAAAAAAACAAAAAAIAAAACAAAAAAAAAAAAAAAAAAAAAAAAAAAAAAAAAAAAAAAAAAAAAAAAAAAAAAAAAAAAAAAAAAAAAAAAA==

> <PUBCHEM_IUPAC_OPENEYE_NAME>
calcium;magnesium;dicarbonate

> <PUBCHEM_IUPAC_CAS_NAME>
calcium;magnesium;dicarbonate

> <PUBCHEM_IUPAC_NAME_MARKUP>
calcium;magnesium;dicarbonate

> <PUBCHEM_IUPAC_NAME>
calcium;magnesium;dicarbonate

> <PUBCHEM_IUPAC_SYSTEMATIC_NAME>
calcium;magnesium;dicarbonate

> <PUBCHEM_IUPAC_TRADITIONAL_NAME>
calcium;magnesium;dicarbonate

> <PUBCHEM_IUPAC_INCHI>
InChI=1S/2CH2O3.Ca.Mg/c2*2-1(3)4;;/h2*(H2,2,3,4);;/q;;2*+2/p-4

> <PUBCHEM_IUPAC_INCHIKEY>
HHSPVTKDOHQBKF-UHFFFAOYSA-J

> <PUBCHEM_EXACT_MASS>
183.9171203

> <PUBCHEM_MOLECULAR_FORMULA>
C2CaMgO6

> <PUBCHEM_MOLECULAR_WEIGHT>
184.40

> <PUBCHEM_SMILES>
C(=O)([O-])[O-].C(=O)([O-])[O-].[Mg+2].[Ca+2]

> <PUBCHEM_OPENEYE_CAN_SMILES>
C(=O)([O-])[O-].C(=O)([O-])[O-].[Mg+2].[Ca+2]

> <PUBCHEM_OPENEYE_ISO_SMILES>
C(=O)([O-])[O-].C(=O)([O-])[O-].[Mg+2].[Ca+2]

> <PUBCHEM_CACTVS_TPSA>
126

> <PUBCHEM_MONOISOTOPIC_WEIGHT>
183.9171203

> <PUBCHEM_TOTAL_CHARGE>
0

> <PUBCHEM_HEAVY_ATOM_COUNT>
10

> <PUBCHEM_ATOM_DEF_STEREO_COUNT>
0

> <PUBCHEM_ATOM_UDEF_STEREO_COUNT>
0

> <PUBCHEM_BOND_DEF_STEREO_COUNT>
0

> <PUBCHEM_BOND_UDEF_STEREO_COUNT>
0

> <PUBCHEM_ISOTOPIC_ATOM_COUNT>
0

> <PUBCHEM_COMPONENT_COUNT>
4

> <PUBCHEM_CACTVS_TAUTO_COUNT>
-1

> <PUBCHEM_COORDINATE_TYPE>
1
5
255

$$$$
