61858
  -OEChem-04042505362D

 33 32  0     1  0  0  0  0  0999 V2000
    2.0000   -0.9330    0.0000 O   0  0  0  0  0  0  0  0  0  0  0  0
   11.5263   -0.4330    0.0000 O   0  0  0  0  0  0  0  0  0  0  0  0
    3.7320    0.0670    0.0000 N   0  0  0  0  0  0  0  0  0  0  0  0
    9.7942    0.5670    0.0000 N   0  0  0  0  0  0  0  0  0  0  0  0
    5.4641    0.0670    0.0000 C   0  0  0  0  0  0  0  0  0  0  0  0
    6.3301    0.5670    0.0000 C   0  0  0  0  0  0  0  0  0  0  0  0
    7.1962    0.0670    0.0000 C   0  0  3  0  0  0  0  0  0  0  0  0
    8.0622    0.5670    0.0000 C   0  0  0  0  0  0  0  0  0  0  0  0
    4.5981   -0.4330    0.0000 C   0  0  0  0  0  0  0  0  0  0  0  0
    4.9641    0.9330    0.0000 C   0  0  0  0  0  0  0  0  0  0  0  0
    5.9641   -0.7990    0.0000 C   0  0  0  0  0  0  0  0  0  0  0  0
    7.1962   -0.9330    0.0000 C   0  0  0  0  0  0  0  0  0  0  0  0
    8.9282    0.0670    0.0000 C   0  0  0  0  0  0  0  0  0  0  0  0
    2.8660   -0.4330    0.0000 C   0  0  0  0  0  0  0  0  0  0  0  0
   10.6603    0.0670    0.0000 C   0  0  0  0  0  0  0  0  0  0  0  0
    6.7287    1.0419    0.0000 H   0  0  0  0  0  0  0  0  0  0  0  0
    5.9316    1.0419    0.0000 H   0  0  0  0  0  0  0  0  0  0  0  0
    6.6592   -0.2430    0.0000 H   0  0  0  0  0  0  0  0  0  0  0  0
    8.4607    1.0419    0.0000 H   0  0  0  0  0  0  0  0  0  0  0  0
    7.6636    1.0419    0.0000 H   0  0  0  0  0  0  0  0  0  0  0  0
    4.1996   -0.9080    0.0000 H   0  0  0  0  0  0  0  0  0  0  0  0
    4.9966   -0.9080    0.0000 H   0  0  0  0  0  0  0  0  0  0  0  0
    5.5010    1.2430    0.0000 H   0  0  0  0  0  0  0  0  0  0  0  0
    4.6541    1.4700    0.0000 H   0  0  0  0  0  0  0  0  0  0  0  0
    4.4272    0.6230    0.0000 H   0  0  0  0  0  0  0  0  0  0  0  0
    5.4272   -1.1090    0.0000 H   0  0  0  0  0  0  0  0  0  0  0  0
    6.2741   -1.3360    0.0000 H   0  0  0  0  0  0  0  0  0  0  0  0
    6.5010   -0.4890    0.0000 H   0  0  0  0  0  0  0  0  0  0  0  0
    6.5762   -0.9330    0.0000 H   0  0  0  0  0  0  0  0  0  0  0  0
    7.1962   -1.5530    0.0000 H   0  0  0  0  0  0  0  0  0  0  0  0
    7.8162   -0.9330    0.0000 H   0  0  0  0  0  0  0  0  0  0  0  0
    8.5297   -0.4080    0.0000 H   0  0  0  0  0  0  0  0  0  0  0  0
    9.3267   -0.4080    0.0000 H   0  0  0  0  0  0  0  0  0  0  0  0
  1 14  2  0  0  0  0
  2 15  2  0  0  0  0
  3  9  1  0  0  0  0
  3 14  2  0  0  0  0
  4 13  1  0  0  0  0
  4 15  2  0  0  0  0
  5  6  1  0  0  0  0
  5  9  1  0  0  0  0
  5 10  1  0  0  0  0
  5 11  1  0  0  0  0
  6  7  1  0  0  0  0
  6 16  1  0  0  0  0
  6 17  1  0  0  0  0
  7  8  1  0  0  0  0
  7 12  1  0  0  0  0
  7 18  1  0  0  0  0
  8 13  1  0  0  0  0
  8 19  1  0  0  0  0
  8 20  1  0  0  0  0
  9 21  1  0  0  0  0
  9 22  1  0  0  0  0
 10 23  1  0  0  0  0
 10 24  1  0  0  0  0
 10 25  1  0  0  0  0
 11 26  1  0  0  0  0
 11 27  1  0  0  0  0
 11 28  1  0  0  0  0
 12 29  1  0  0  0  0
 12 30  1  0  0  0  0
 12 31  1  0  0  0  0
 13 32  1  0  0  0  0
 13 33  1  0  0  0  0
M  END
> <PUBCHEM_COMPOUND_CID>
61858

> <PUBCHEM_COMPOUND_CANONICALIZED>
1

> <PUBCHEM_CACTVS_COMPLEXITY>
274

> <PUBCHEM_CACTVS_HBOND_ACCEPTOR>
4

> <PUBCHEM_CACTVS_HBOND_DONOR>
0

> <PUBCHEM_CACTVS_ROTATABLE_BOND>
7

> <PUBCHEM_CACTVS_SUBSKEYS>
AAADceBzMAAAAAAAAAAAAAAAAAAAAAAAAAAAAAAAAAAAAAAAAAAAHgAAAAAADwDBAAQCAAIAAAAoAAAAFAAAAAAAAAAAAAAAAAAAAAIAgAAAAAAAAAAAAAEQAAAPAAAAAAAAAAAAAAAAAAAAAAAAAAAAAA==

> <PUBCHEM_IUPAC_OPENEYE_NAME>
1,6-diisocyanato-2,2,4-trimethyl-hexane

> <PUBCHEM_IUPAC_CAS_NAME>
1,6-diisocyanato-2,2,4-trimethylhexane

> <PUBCHEM_IUPAC_NAME_MARKUP>
1,6-diisocyanato-2,2,4-trimethylhexane

> <PUBCHEM_IUPAC_NAME>
1,6-diisocyanato-2,2,4-trimethylhexane

> <PUBCHEM_IUPAC_SYSTEMATIC_NAME>
1,6-diisocyanato-2,2,4-trimethyl-hexane

> <PUBCHEM_IUPAC_TRADITIONAL_NAME>
1,6-diisocyanato-2,2,4-trimethyl-hexane

> <PUBCHEM_IUPAC_INCHI>
InChI=1S/C11H18N2O2/c1-10(4-5-12-8-14)6-11(2,3)7-13-9-15/h10H,4-7H2,1-3H3

> <PUBCHEM_IUPAC_INCHIKEY>
ATOUXIOKEJWULN-UHFFFAOYSA-N

> <PUBCHEM_XLOGP3_AA>
4.5

> <PUBCHEM_EXACT_MASS>
210.136827821

> <PUBCHEM_MOLECULAR_FORMULA>
C11H18N2O2

> <PUBCHEM_MOLECULAR_WEIGHT>
210.27

> <PUBCHEM_SMILES>
CC(CCN=C=O)CC(C)(C)CN=C=O

> <PUBCHEM_OPENEYE_CAN_SMILES>
CC(CCN=C=O)CC(C)(C)CN=C=O

> <PUBCHEM_OPENEYE_ISO_SMILES>
CC(CCN=C=O)CC(C)(C)CN=C=O

> <PUBCHEM_CACTVS_TPSA>
58.9

> <PUBCHEM_MONOISOTOPIC_WEIGHT>
210.136827821

> <PUBCHEM_TOTAL_CHARGE>
0

> <PUBCHEM_HEAVY_ATOM_COUNT>
15

> <PUBCHEM_ATOM_DEF_STEREO_COUNT>
0

> <PUBCHEM_ATOM_UDEF_STEREO_COUNT>
1

> <PUBCHEM_BOND_DEF_STEREO_COUNT>
0

> <PUBCHEM_BOND_UDEF_STEREO_COUNT>
0

> <PUBCHEM_ISOTOPIC_ATOM_COUNT>
0

> <PUBCHEM_COMPONENT_COUNT>
1

> <PUBCHEM_CACTVS_TAUTO_COUNT>
-1

> <PUBCHEM_COORDINATE_TYPE>
1
5
255

> <PUBCHEM_BONDANNOTATIONS>
7  12  3

$$$$
