62593
  -OEChem-04042505502D

 29 30  0     0  0  0  0  0  0999 V2000
    2.0000   -2.5000    0.0000 O   0  0  0  0  0  0  0  0  0  0  0  0
    8.9282    3.5000    0.0000 O   0  0  0  0  0  0  0  0  0  0  0  0
    3.7320   -1.5000    0.0000 N   0  0  0  0  0  0  0  0  0  0  0  0
    8.9282    1.5000    0.0000 N   0  0  0  0  0  0  0  0  0  0  0  0
    5.4641   -0.5000    0.0000 C   0  0  0  0  0  0  0  0  0  0  0  0
    5.4641   -1.5000    0.0000 C   0  0  0  0  0  0  0  0  0  0  0  0
    6.3301    0.0000    0.0000 C   0  0  0  0  0  0  0  0  0  0  0  0
    4.5981   -2.0000    0.0000 C   0  0  0  0  0  0  0  0  0  0  0  0
    6.3301    1.0000    0.0000 C   0  0  0  0  0  0  0  0  0  0  0  0
    7.1962   -0.5000    0.0000 C   0  0  0  0  0  0  0  0  0  0  0  0
    6.3301   -2.0000    0.0000 C   0  0  0  0  0  0  0  0  0  0  0  0
    4.5981   -3.0000    0.0000 C   0  0  0  0  0  0  0  0  0  0  0  0
    7.1962    1.5000    0.0000 C   0  0  0  0  0  0  0  0  0  0  0  0
    8.0622    0.0000    0.0000 C   0  0  0  0  0  0  0  0  0  0  0  0
    6.3301   -3.0000    0.0000 C   0  0  0  0  0  0  0  0  0  0  0  0
    8.0622    1.0000    0.0000 C   0  0  0  0  0  0  0  0  0  0  0  0
    5.4641   -3.5000    0.0000 C   0  0  0  0  0  0  0  0  0  0  0  0
    2.8660   -2.0000    0.0000 C   0  0  0  0  0  0  0  0  0  0  0  0
    8.9282    2.5000    0.0000 C   0  0  0  0  0  0  0  0  0  0  0  0
    5.2520    0.0826    0.0000 H   0  0  0  0  0  0  0  0  0  0  0  0
    4.8535   -0.6077    0.0000 H   0  0  0  0  0  0  0  0  0  0  0  0
    5.7932    1.3100    0.0000 H   0  0  0  0  0  0  0  0  0  0  0  0
    7.1962   -1.1200    0.0000 H   0  0  0  0  0  0  0  0  0  0  0  0
    6.8671   -1.6900    0.0000 H   0  0  0  0  0  0  0  0  0  0  0  0
    4.0611   -3.3100    0.0000 H   0  0  0  0  0  0  0  0  0  0  0  0
    7.1962    2.1200    0.0000 H   0  0  0  0  0  0  0  0  0  0  0  0
    8.5991   -0.3100    0.0000 H   0  0  0  0  0  0  0  0  0  0  0  0
    6.8671   -3.3100    0.0000 H   0  0  0  0  0  0  0  0  0  0  0  0
    5.4641   -4.1200    0.0000 H   0  0  0  0  0  0  0  0  0  0  0  0
  1 18  2  0  0  0  0
  2 19  2  0  0  0  0
  3  8  1  0  0  0  0
  3 18  2  0  0  0  0
  4 16  1  0  0  0  0
  4 19  2  0  0  0  0
  5  6  1  0  0  0  0
  5  7  1  0  0  0  0
  5 20  1  0  0  0  0
  5 21  1  0  0  0  0
  6  8  1  0  0  0  0
  6 11  2  0  0  0  0
  7  9  2  0  0  0  0
  7 10  1  0  0  0  0
  8 12  2  0  0  0  0
  9 13  1  0  0  0  0
  9 22  1  0  0  0  0
 10 14  2  0  0  0  0
 10 23  1  0  0  0  0
 11 15  1  0  0  0  0
 11 24  1  0  0  0  0
 12 17  1  0  0  0  0
 12 25  1  0  0  0  0
 13 16  2  0  0  0  0
 13 26  1  0  0  0  0
 14 16  1  0  0  0  0
 14 27  1  0  0  0  0
 15 17  2  0  0  0  0
 15 28  1  0  0  0  0
 17 29  1  0  0  0  0
M  END
> <PUBCHEM_COMPOUND_CID>
62593

> <PUBCHEM_COMPOUND_CANONICALIZED>
1

> <PUBCHEM_CACTVS_COMPLEXITY>
376

> <PUBCHEM_CACTVS_HBOND_ACCEPTOR>
4

> <PUBCHEM_CACTVS_HBOND_DONOR>
0

> <PUBCHEM_CACTVS_ROTATABLE_BOND>
4

> <PUBCHEM_CACTVS_SUBSKEYS>
AAADccBzMAAAAAAAAAAAAAAAAAAAAAAAAAAwYAAAAAAAAAABQAAAHgAAAAAADAiBGAAwwIIAAACoAiRCVACCAAAgAgAIiAAAZIgIICKAkZGAIABggAAIyAcQgMAOCAAAAAACAAAQAAAAAAQAAAAAAAAAAA==

> <PUBCHEM_IUPAC_OPENEYE_NAME>
1-isocyanato-2-[(4-isocyanatophenyl)methyl]benzene

> <PUBCHEM_IUPAC_CAS_NAME>
1-isocyanato-2-[(4-isocyanatophenyl)methyl]benzene

> <PUBCHEM_IUPAC_NAME_MARKUP>
1-isocyanato-2-[(4-isocyanatophenyl)methyl]benzene

> <PUBCHEM_IUPAC_NAME>
1-isocyanato-2-[(4-isocyanatophenyl)methyl]benzene

> <PUBCHEM_IUPAC_SYSTEMATIC_NAME>
1-isocyanato-2-[(4-isocyanatophenyl)methyl]benzene

> <PUBCHEM_IUPAC_TRADITIONAL_NAME>
1-isocyanato-2-(4-isocyanatobenzyl)benzene

> <PUBCHEM_IUPAC_INCHI>
InChI=1S/C15H10N2O2/c18-10-16-14-7-5-12(6-8-14)9-13-3-1-2-4-15(13)17-11-19/h1-8H,9H2

> <PUBCHEM_IUPAC_INCHIKEY>
LFSYUSUFCBOHGU-UHFFFAOYSA-N

> <PUBCHEM_XLOGP3_AA>
5.4

> <PUBCHEM_EXACT_MASS>
250.074227566

> <PUBCHEM_MOLECULAR_FORMULA>
C15H10N2O2

> <PUBCHEM_MOLECULAR_WEIGHT>
250.25

> <PUBCHEM_SMILES>
C1=CC=C(C(=C1)CC2=CC=C(C=C2)N=C=O)N=C=O

> <PUBCHEM_OPENEYE_CAN_SMILES>
C1=CC=C(C(=C1)CC2=CC=C(C=C2)N=C=O)N=C=O

> <PUBCHEM_OPENEYE_ISO_SMILES>
C1=CC=C(C(=C1)CC2=CC=C(C=C2)N=C=O)N=C=O

> <PUBCHEM_CACTVS_TPSA>
58.9

> <PUBCHEM_MONOISOTOPIC_WEIGHT>
250.074227566

> <PUBCHEM_TOTAL_CHARGE>
0

> <PUBCHEM_HEAVY_ATOM_COUNT>
19

> <PUBCHEM_ATOM_DEF_STEREO_COUNT>
0

> <PUBCHEM_ATOM_UDEF_STEREO_COUNT>
0

> <PUBCHEM_BOND_DEF_STEREO_COUNT>
0

> <PUBCHEM_BOND_UDEF_STEREO_COUNT>
0

> <PUBCHEM_ISOTOPIC_ATOM_COUNT>
0

> <PUBCHEM_COMPONENT_COUNT>
1

> <PUBCHEM_CACTVS_TAUTO_COUNT>
-1

> <PUBCHEM_COORDINATE_TYPE>
1
5
255

> <PUBCHEM_BONDANNOTATIONS>
10  14  8
11  15  8
12  17  8
13  16  8
14  16  8
15  17  8
6  11  8
6  8  8
7  10  8
7  9  8
8  12  8
9  13  8

$$$$
