62726
  -OEChem-04042505512D

209208  0     0  0  0  0  0  0999 V2000
   23.6506    8.7500    0.0000 O   0  0  0  0  0  0  0  0  0  0  0  0
   21.0526    8.2500    0.0000 O   0  0  0  0  0  0  0  0  0  0  0  0
   21.9186    6.7500    0.0000 O   0  0  0  0  0  0  0  0  0  0  0  0
   24.5167    7.2500    0.0000 O   0  0  0  0  0  0  0  0  0  0  0  0
   20.1865    9.7500    0.0000 O   0  0  0  0  0  0  0  0  0  0  0  0
   22.7846    5.2500    0.0000 O   0  0  0  0  0  0  0  0  0  0  0  0
   33.1769    8.2500    0.0000 C   0  0  0  0  0  0  0  0  0  0  0  0
   34.0429    8.7500    0.0000 C   0  0  0  0  0  0  0  0  0  0  0  0
   11.5263    8.7500    0.0000 C   0  0  0  0  0  0  0  0  0  0  0  0
   17.5885   -1.7500    0.0000 C   0  0  0  0  0  0  0  0  0  0  0  0
   10.6603    8.2500    0.0000 C   0  0  0  0  0  0  0  0  0  0  0  0
   16.7224   -2.2500    0.0000 C   0  0  0  0  0  0  0  0  0  0  0  0
   32.3109    8.7500    0.0000 C   0  0  0  0  0  0  0  0  0  0  0  0
   34.9090    8.2500    0.0000 C   0  0  0  0  0  0  0  0  0  0  0  0
   12.3923    8.2500    0.0000 C   0  0  0  0  0  0  0  0  0  0  0  0
   17.5885   -0.7500    0.0000 C   0  0  0  0  0  0  0  0  0  0  0  0
    9.7942    8.7500    0.0000 C   0  0  0  0  0  0  0  0  0  0  0  0
   16.7224   -3.2500    0.0000 C   0  0  0  0  0  0  0  0  0  0  0  0
   31.4449    8.2500    0.0000 C   0  0  0  0  0  0  0  0  0  0  0  0
   35.7750    8.7500    0.0000 C   0  0  0  0  0  0  0  0  0  0  0  0
   13.2583    8.7500    0.0000 C   0  0  0  0  0  0  0  0  0  0  0  0
   18.4545   -0.2500    0.0000 C   0  0  0  0  0  0  0  0  0  0  0  0
    8.9282    8.2500    0.0000 C   0  0  0  0  0  0  0  0  0  0  0  0
   15.8564   -3.7500    0.0000 C   0  0  0  0  0  0  0  0  0  0  0  0
   30.5788    8.7500    0.0000 C   0  0  0  0  0  0  0  0  0  0  0  0
   36.6410    8.2500    0.0000 C   0  0  0  0  0  0  0  0  0  0  0  0
   14.1244    8.2500    0.0000 C   0  0  0  0  0  0  0  0  0  0  0  0
   18.4545    0.7500    0.0000 C   0  0  0  0  0  0  0  0  0  0  0  0
    8.0622    8.7500    0.0000 C   0  0  0  0  0  0  0  0  0  0  0  0
   15.8564   -4.7500    0.0000 C   0  0  0  0  0  0  0  0  0  0  0  0
   29.7128    8.2500    0.0000 C   0  0  0  0  0  0  0  0  0  0  0  0
   37.5070    8.7500    0.0000 C   0  0  0  0  0  0  0  0  0  0  0  0
   14.9904    8.7500    0.0000 C   0  0  0  0  0  0  0  0  0  0  0  0
   19.3205    1.2500    0.0000 C   0  0  0  0  0  0  0  0  0  0  0  0
    7.1962    8.2500    0.0000 C   0  0  0  0  0  0  0  0  0  0  0  0
   14.9904   -5.2500    0.0000 C   0  0  0  0  0  0  0  0  0  0  0  0
   28.8468    8.7500    0.0000 C   0  0  0  0  0  0  0  0  0  0  0  0
   38.3731    8.2500    0.0000 C   0  0  0  0  0  0  0  0  0  0  0  0
   15.8564    8.2500    0.0000 C   0  0  0  0  0  0  0  0  0  0  0  0
   19.3205    2.2500    0.0000 C   0  0  0  0  0  0  0  0  0  0  0  0
    6.3301    8.7500    0.0000 C   0  0  0  0  0  0  0  0  0  0  0  0
   14.9904   -6.2500    0.0000 C   0  0  0  0  0  0  0  0  0  0  0  0
   27.9808    8.2500    0.0000 C   0  0  0  0  0  0  0  0  0  0  0  0
   39.2391    8.7500    0.0000 C   0  0  0  0  0  0  0  0  0  0  0  0
   16.7224    8.7500    0.0000 C   0  0  0  0  0  0  0  0  0  0  0  0
   20.1865    2.7500    0.0000 C   0  0  0  0  0  0  0  0  0  0  0  0
    5.4641    8.2500    0.0000 C   0  0  0  0  0  0  0  0  0  0  0  0
   14.1244   -6.7500    0.0000 C   0  0  0  0  0  0  0  0  0  0  0  0
   27.1147    8.7500    0.0000 C   0  0  0  0  0  0  0  0  0  0  0  0
   40.1051    8.2500    0.0000 C   0  0  0  0  0  0  0  0  0  0  0  0
    4.5981    8.7500    0.0000 C   0  0  0  0  0  0  0  0  0  0  0  0
   14.1244   -7.7500    0.0000 C   0  0  0  0  0  0  0  0  0  0  0  0
   17.5885    8.2500    0.0000 C   0  0  0  0  0  0  0  0  0  0  0  0
   20.1865    3.7500    0.0000 C   0  0  0  0  0  0  0  0  0  0  0  0
   26.2487    8.2500    0.0000 C   0  0  0  0  0  0  0  0  0  0  0  0
   40.9711    8.7500    0.0000 C   0  0  0  0  0  0  0  0  0  0  0  0
    3.7320    8.2500    0.0000 C   0  0  0  0  0  0  0  0  0  0  0  0
   13.2583   -8.2500    0.0000 C   0  0  0  0  0  0  0  0  0  0  0  0
   18.4545    8.7500    0.0000 C   0  0  0  0  0  0  0  0  0  0  0  0
   21.0526    4.2500    0.0000 C   0  0  0  0  0  0  0  0  0  0  0  0
   25.3827    8.7500    0.0000 C   0  0  0  0  0  0  0  0  0  0  0  0
   41.8372    8.2500    0.0000 C   0  0  0  0  0  0  0  0  0  0  0  0
    2.8660    8.7500    0.0000 C   0  0  0  0  0  0  0  0  0  0  0  0
   13.2583   -9.2500    0.0000 C   0  0  0  0  0  0  0  0  0  0  0  0
   19.3205    8.2500    0.0000 C   0  0  0  0  0  0  0  0  0  0  0  0
   21.0526    5.2500    0.0000 C   0  0  0  0  0  0  0  0  0  0  0  0
   22.7846    8.2500    0.0000 C   0  0  0  0  0  0  0  0  0  0  0  0
   24.5167    8.2500    0.0000 C   0  0  0  0  0  0  0  0  0  0  0  0
   42.7032    8.7500    0.0000 C   0  0  0  0  0  0  0  0  0  0  0  0
    2.0000    8.2500    0.0000 C   0  0  0  0  0  0  0  0  0  0  0  0
   12.3923   -9.7500    0.0000 C   0  0  0  0  0  0  0  0  0  0  0  0
   20.1865    8.7500    0.0000 C   0  0  0  0  0  0  0  0  0  0  0  0
   21.9186    5.7500    0.0000 C   0  0  0  0  0  0  0  0  0  0  0  0
   21.9186    8.7500    0.0000 C   0  0  0  0  0  0  0  0  0  0  0  0
   22.7846    7.2500    0.0000 C   0  0  0  0  0  0  0  0  0  0  0  0
   32.7784    7.7750    0.0000 H   0  0  0  0  0  0  0  0  0  0  0  0
   33.5754    7.7750    0.0000 H   0  0  0  0  0  0  0  0  0  0  0  0
   34.4415    9.2250    0.0000 H   0  0  0  0  0  0  0  0  0  0  0  0
   33.6444    9.2250    0.0000 H   0  0  0  0  0  0  0  0  0  0  0  0
   11.9248    9.2250    0.0000 H   0  0  0  0  0  0  0  0  0  0  0  0
   11.1278    9.2250    0.0000 H   0  0  0  0  0  0  0  0  0  0  0  0
   17.8005   -2.3326    0.0000 H   0  0  0  0  0  0  0  0  0  0  0  0
   18.1990   -1.6423    0.0000 H   0  0  0  0  0  0  0  0  0  0  0  0
   10.2617    7.7750    0.0000 H   0  0  0  0  0  0  0  0  0  0  0  0
   11.0588    7.7750    0.0000 H   0  0  0  0  0  0  0  0  0  0  0  0
   16.5104   -1.6674    0.0000 H   0  0  0  0  0  0  0  0  0  0  0  0
   16.1119   -2.3577    0.0000 H   0  0  0  0  0  0  0  0  0  0  0  0
   32.7094    9.2250    0.0000 H   0  0  0  0  0  0  0  0  0  0  0  0
   31.9124    9.2250    0.0000 H   0  0  0  0  0  0  0  0  0  0  0  0
   34.5104    7.7750    0.0000 H   0  0  0  0  0  0  0  0  0  0  0  0
   35.3075    7.7750    0.0000 H   0  0  0  0  0  0  0  0  0  0  0  0
   11.9938    7.7750    0.0000 H   0  0  0  0  0  0  0  0  0  0  0  0
   12.7908    7.7750    0.0000 H   0  0  0  0  0  0  0  0  0  0  0  0
   17.3764   -0.1674    0.0000 H   0  0  0  0  0  0  0  0  0  0  0  0
   16.9779   -0.8577    0.0000 H   0  0  0  0  0  0  0  0  0  0  0  0
   10.1928    9.2250    0.0000 H   0  0  0  0  0  0  0  0  0  0  0  0
    9.3957    9.2250    0.0000 H   0  0  0  0  0  0  0  0  0  0  0  0
   16.9345   -3.8326    0.0000 H   0  0  0  0  0  0  0  0  0  0  0  0
   17.3330   -3.1423    0.0000 H   0  0  0  0  0  0  0  0  0  0  0  0
   31.0463    7.7750    0.0000 H   0  0  0  0  0  0  0  0  0  0  0  0
   31.8434    7.7750    0.0000 H   0  0  0  0  0  0  0  0  0  0  0  0
   36.1735    9.2250    0.0000 H   0  0  0  0  0  0  0  0  0  0  0  0
   35.3765    9.2250    0.0000 H   0  0  0  0  0  0  0  0  0  0  0  0
   13.6569    9.2250    0.0000 H   0  0  0  0  0  0  0  0  0  0  0  0
   12.8598    9.2250    0.0000 H   0  0  0  0  0  0  0  0  0  0  0  0
   18.6665   -0.8326    0.0000 H   0  0  0  0  0  0  0  0  0  0  0  0
   19.0651   -0.1423    0.0000 H   0  0  0  0  0  0  0  0  0  0  0  0
    8.5297    7.7750    0.0000 H   0  0  0  0  0  0  0  0  0  0  0  0
    9.3267    7.7750    0.0000 H   0  0  0  0  0  0  0  0  0  0  0  0
   15.6444   -3.1674    0.0000 H   0  0  0  0  0  0  0  0  0  0  0  0
   15.2458   -3.8577    0.0000 H   0  0  0  0  0  0  0  0  0  0  0  0
   30.9774    9.2250    0.0000 H   0  0  0  0  0  0  0  0  0  0  0  0
   30.1803    9.2250    0.0000 H   0  0  0  0  0  0  0  0  0  0  0  0
   36.2425    7.7750    0.0000 H   0  0  0  0  0  0  0  0  0  0  0  0
   37.0395    7.7750    0.0000 H   0  0  0  0  0  0  0  0  0  0  0  0
   13.7258    7.7750    0.0000 H   0  0  0  0  0  0  0  0  0  0  0  0
   14.5229    7.7750    0.0000 H   0  0  0  0  0  0  0  0  0  0  0  0
   18.2424    1.3326    0.0000 H   0  0  0  0  0  0  0  0  0  0  0  0
   17.8439    0.6423    0.0000 H   0  0  0  0  0  0  0  0  0  0  0  0
    8.4607    9.2250    0.0000 H   0  0  0  0  0  0  0  0  0  0  0  0
    7.6636    9.2250    0.0000 H   0  0  0  0  0  0  0  0  0  0  0  0
   16.0685   -5.3326    0.0000 H   0  0  0  0  0  0  0  0  0  0  0  0
   16.4670   -4.6423    0.0000 H   0  0  0  0  0  0  0  0  0  0  0  0
   29.3143    7.7750    0.0000 H   0  0  0  0  0  0  0  0  0  0  0  0
   30.1113    7.7750    0.0000 H   0  0  0  0  0  0  0  0  0  0  0  0
   37.9056    9.2250    0.0000 H   0  0  0  0  0  0  0  0  0  0  0  0
   37.1085    9.2250    0.0000 H   0  0  0  0  0  0  0  0  0  0  0  0
   15.3889    9.2250    0.0000 H   0  0  0  0  0  0  0  0  0  0  0  0
   14.5919    9.2250    0.0000 H   0  0  0  0  0  0  0  0  0  0  0  0
   19.5326    0.6674    0.0000 H   0  0  0  0  0  0  0  0  0  0  0  0
   19.9311    1.3577    0.0000 H   0  0  0  0  0  0  0  0  0  0  0  0
    6.7976    7.7750    0.0000 H   0  0  0  0  0  0  0  0  0  0  0  0
    7.5947    7.7750    0.0000 H   0  0  0  0  0  0  0  0  0  0  0  0
   14.7783   -4.6674    0.0000 H   0  0  0  0  0  0  0  0  0  0  0  0
   14.3798   -5.3577    0.0000 H   0  0  0  0  0  0  0  0  0  0  0  0
   29.2453    9.2250    0.0000 H   0  0  0  0  0  0  0  0  0  0  0  0
   28.4483    9.2250    0.0000 H   0  0  0  0  0  0  0  0  0  0  0  0
   37.9745    7.7750    0.0000 H   0  0  0  0  0  0  0  0  0  0  0  0
   38.7716    7.7750    0.0000 H   0  0  0  0  0  0  0  0  0  0  0  0
   15.4579    7.7750    0.0000 H   0  0  0  0  0  0  0  0  0  0  0  0
   16.2549    7.7750    0.0000 H   0  0  0  0  0  0  0  0  0  0  0  0
   19.1085    2.8326    0.0000 H   0  0  0  0  0  0  0  0  0  0  0  0
   18.7099    2.1423    0.0000 H   0  0  0  0  0  0  0  0  0  0  0  0
    6.7287    9.2250    0.0000 H   0  0  0  0  0  0  0  0  0  0  0  0
    5.9316    9.2250    0.0000 H   0  0  0  0  0  0  0  0  0  0  0  0
   15.2024   -6.8326    0.0000 H   0  0  0  0  0  0  0  0  0  0  0  0
   15.6010   -6.1423    0.0000 H   0  0  0  0  0  0  0  0  0  0  0  0
   27.5822    7.7750    0.0000 H   0  0  0  0  0  0  0  0  0  0  0  0
   28.3793    7.7750    0.0000 H   0  0  0  0  0  0  0  0  0  0  0  0
   39.6376    9.2250    0.0000 H   0  0  0  0  0  0  0  0  0  0  0  0
   38.8406    9.2250    0.0000 H   0  0  0  0  0  0  0  0  0  0  0  0
   17.1210    9.2250    0.0000 H   0  0  0  0  0  0  0  0  0  0  0  0
   16.3239    9.2250    0.0000 H   0  0  0  0  0  0  0  0  0  0  0  0
   20.3986    2.1674    0.0000 H   0  0  0  0  0  0  0  0  0  0  0  0
   20.7971    2.8577    0.0000 H   0  0  0  0  0  0  0  0  0  0  0  0
    5.0656    7.7750    0.0000 H   0  0  0  0  0  0  0  0  0  0  0  0
    5.8626    7.7750    0.0000 H   0  0  0  0  0  0  0  0  0  0  0  0
   13.9123   -6.1674    0.0000 H   0  0  0  0  0  0  0  0  0  0  0  0
   13.5138   -6.8577    0.0000 H   0  0  0  0  0  0  0  0  0  0  0  0
   27.5133    9.2250    0.0000 H   0  0  0  0  0  0  0  0  0  0  0  0
   26.7162    9.2250    0.0000 H   0  0  0  0  0  0  0  0  0  0  0  0
   39.7066    7.7750    0.0000 H   0  0  0  0  0  0  0  0  0  0  0  0
   40.5036    7.7750    0.0000 H   0  0  0  0  0  0  0  0  0  0  0  0
    4.9966    9.2250    0.0000 H   0  0  0  0  0  0  0  0  0  0  0  0
    4.1996    9.2250    0.0000 H   0  0  0  0  0  0  0  0  0  0  0  0
   14.3364   -8.3326    0.0000 H   0  0  0  0  0  0  0  0  0  0  0  0
   14.7349   -7.6423    0.0000 H   0  0  0  0  0  0  0  0  0  0  0  0
   17.1899    7.7750    0.0000 H   0  0  0  0  0  0  0  0  0  0  0  0
   17.9870    7.7750    0.0000 H   0  0  0  0  0  0  0  0  0  0  0  0
   19.9745    4.3326    0.0000 H   0  0  0  0  0  0  0  0  0  0  0  0
   19.5760    3.6423    0.0000 H   0  0  0  0  0  0  0  0  0  0  0  0
   25.8502    7.7750    0.0000 H   0  0  0  0  0  0  0  0  0  0  0  0
   26.6472    7.7750    0.0000 H   0  0  0  0  0  0  0  0  0  0  0  0
   41.3697    9.2250    0.0000 H   0  0  0  0  0  0  0  0  0  0  0  0
   40.5726    9.2250    0.0000 H   0  0  0  0  0  0  0  0  0  0  0  0
    3.3335    7.7750    0.0000 H   0  0  0  0  0  0  0  0  0  0  0  0
    4.1306    7.7750    0.0000 H   0  0  0  0  0  0  0  0  0  0  0  0
   13.0463   -7.6674    0.0000 H   0  0  0  0  0  0  0  0  0  0  0  0
   12.6477   -8.3577    0.0000 H   0  0  0  0  0  0  0  0  0  0  0  0
   18.8530    9.2250    0.0000 H   0  0  0  0  0  0  0  0  0  0  0  0
   18.0560    9.2250    0.0000 H   0  0  0  0  0  0  0  0  0  0  0  0
   21.2646    3.6674    0.0000 H   0  0  0  0  0  0  0  0  0  0  0  0
   21.6631    4.3577    0.0000 H   0  0  0  0  0  0  0  0  0  0  0  0
   25.7812    9.2250    0.0000 H   0  0  0  0  0  0  0  0  0  0  0  0
   24.9842    9.2250    0.0000 H   0  0  0  0  0  0  0  0  0  0  0  0
   41.4386    7.7750    0.0000 H   0  0  0  0  0  0  0  0  0  0  0  0
   42.2357    7.7750    0.0000 H   0  0  0  0  0  0  0  0  0  0  0  0
    3.2646    9.2250    0.0000 H   0  0  0  0  0  0  0  0  0  0  0  0
    2.4675    9.2250    0.0000 H   0  0  0  0  0  0  0  0  0  0  0  0
   13.4704   -9.8326    0.0000 H   0  0  0  0  0  0  0  0  0  0  0  0
   13.8689   -9.1423    0.0000 H   0  0  0  0  0  0  0  0  0  0  0  0
   18.9220    7.7750    0.0000 H   0  0  0  0  0  0  0  0  0  0  0  0
   19.7190    7.7750    0.0000 H   0  0  0  0  0  0  0  0  0  0  0  0
   20.8405    5.8326    0.0000 H   0  0  0  0  0  0  0  0  0  0  0  0
   20.4420    5.1423    0.0000 H   0  0  0  0  0  0  0  0  0  0  0  0
   23.3215    7.9400    0.0000 H   0  0  0  0  0  0  0  0  0  0  0  0
   43.0132    8.2131    0.0000 H   0  0  0  0  0  0  0  0  0  0  0  0
   43.2401    9.0600    0.0000 H   0  0  0  0  0  0  0  0  0  0  0  0
   42.3932    9.2869    0.0000 H   0  0  0  0  0  0  0  0  0  0  0  0
    1.6900    8.7869    0.0000 H   0  0  0  0  0  0  0  0  0  0  0  0
    1.4631    7.9400    0.0000 H   0  0  0  0  0  0  0  0  0  0  0  0
    2.3100    7.7131    0.0000 H   0  0  0  0  0  0  0  0  0  0  0  0
   12.0823   -9.2131    0.0000 H   0  0  0  0  0  0  0  0  0  0  0  0
   11.8554  -10.0600    0.0000 H   0  0  0  0  0  0  0  0  0  0  0  0
   12.7023  -10.2869    0.0000 H   0  0  0  0  0  0  0  0  0  0  0  0
   22.3171    9.2250    0.0000 H   0  0  0  0  0  0  0  0  0  0  0  0
   21.5201    9.2250    0.0000 H   0  0  0  0  0  0  0  0  0  0  0  0
   22.9967    6.6674    0.0000 H   0  0  0  0  0  0  0  0  0  0  0  0
   23.3952    7.3577    0.0000 H   0  0  0  0  0  0  0  0  0  0  0  0
  1 67  1  0  0  0  0
  1 68  1  0  0  0  0
  2 72  1  0  0  0  0
  2 74  1  0  0  0  0
  3 73  1  0  0  0  0
  3 75  1  0  0  0  0
  4 68  2  0  0  0  0
  5 72  2  0  0  0  0
  6 73  2  0  0  0  0
  7  8  1  0  0  0  0
  7 13  1  0  0  0  0
  7 76  1  0  0  0  0
  7 77  1  0  0  0  0
  8 14  1  0  0  0  0
  8 78  1  0  0  0  0
  8 79  1  0  0  0  0
  9 11  1  0  0  0  0
  9 15  1  0  0  0  0
  9 80  1  0  0  0  0
  9 81  1  0  0  0  0
 10 12  1  0  0  0  0
 10 16  1  0  0  0  0
 10 82  1  0  0  0  0
 10 83  1  0  0  0  0
 11 17  1  0  0  0  0
 11 84  1  0  0  0  0
 11 85  1  0  0  0  0
 12 18  1  0  0  0  0
 12 86  1  0  0  0  0
 12 87  1  0  0  0  0
 13 19  1  0  0  0  0
 13 88  1  0  0  0  0
 13 89  1  0  0  0  0
 14 20  1  0  0  0  0
 14 90  1  0  0  0  0
 14 91  1  0  0  0  0
 15 21  1  0  0  0  0
 15 92  1  0  0  0  0
 15 93  1  0  0  0  0
 16 22  1  0  0  0  0
 16 94  1  0  0  0  0
 16 95  1  0  0  0  0
 17 23  1  0  0  0  0
 17 96  1  0  0  0  0
 17 97  1  0  0  0  0
 18 24  1  0  0  0  0
 18 98  1  0  0  0  0
 18 99  1  0  0  0  0
 19 25  1  0  0  0  0
 19100  1  0  0  0  0
 19101  1  0  0  0  0
 20 26  1  0  0  0  0
 20102  1  0  0  0  0
 20103  1  0  0  0  0
 21 27  1  0  0  0  0
 21104  1  0  0  0  0
 21105  1  0  0  0  0
 22 28  1  0  0  0  0
 22106  1  0  0  0  0
 22107  1  0  0  0  0
 23 29  1  0  0  0  0
 23108  1  0  0  0  0
 23109  1  0  0  0  0
 24 30  1  0  0  0  0
 24110  1  0  0  0  0
 24111  1  0  0  0  0
 25 31  1  0  0  0  0
 25112  1  0  0  0  0
 25113  1  0  0  0  0
 26 32  1  0  0  0  0
 26114  1  0  0  0  0
 26115  1  0  0  0  0
 27 33  1  0  0  0  0
 27116  1  0  0  0  0
 27117  1  0  0  0  0
 28 34  1  0  0  0  0
 28118  1  0  0  0  0
 28119  1  0  0  0  0
 29 35  1  0  0  0  0
 29120  1  0  0  0  0
 29121  1  0  0  0  0
 30 36  1  0  0  0  0
 30122  1  0  0  0  0
 30123  1  0  0  0  0
 31 37  1  0  0  0  0
 31124  1  0  0  0  0
 31125  1  0  0  0  0
 32 38  1  0  0  0  0
 32126  1  0  0  0  0
 32127  1  0  0  0  0
 33 39  1  0  0  0  0
 33128  1  0  0  0  0
 33129  1  0  0  0  0
 34 40  1  0  0  0  0
 34130  1  0  0  0  0
 34131  1  0  0  0  0
 35 41  1  0  0  0  0
 35132  1  0  0  0  0
 35133  1  0  0  0  0
 36 42  1  0  0  0  0
 36134  1  0  0  0  0
 36135  1  0  0  0  0
 37 43  1  0  0  0  0
 37136  1  0  0  0  0
 37137  1  0  0  0  0
 38 44  1  0  0  0  0
 38138  1  0  0  0  0
 38139  1  0  0  0  0
 39 45  1  0  0  0  0
 39140  1  0  0  0  0
 39141  1  0  0  0  0
 40 46  1  0  0  0  0
 40142  1  0  0  0  0
 40143  1  0  0  0  0
 41 47  1  0  0  0  0
 41144  1  0  0  0  0
 41145  1  0  0  0  0
 42 48  1  0  0  0  0
 42146  1  0  0  0  0
 42147  1  0  0  0  0
 43 49  1  0  0  0  0
 43148  1  0  0  0  0
 43149  1  0  0  0  0
 44 50  1  0  0  0  0
 44150  1  0  0  0  0
 44151  1  0  0  0  0
 45 53  1  0  0  0  0
 45152  1  0  0  0  0
 45153  1  0  0  0  0
 46 54  1  0  0  0  0
 46154  1  0  0  0  0
 46155  1  0  0  0  0
 47 51  1  0  0  0  0
 47156  1  0  0  0  0
 47157  1  0  0  0  0
 48 52  1  0  0  0  0
 48158  1  0  0  0  0
 48159  1  0  0  0  0
 49 55  1  0  0  0  0
 49160  1  0  0  0  0
 49161  1  0  0  0  0
 50 56  1  0  0  0  0
 50162  1  0  0  0  0
 50163  1  0  0  0  0
 51 57  1  0  0  0  0
 51164  1  0  0  0  0
 51165  1  0  0  0  0
 52 58  1  0  0  0  0
 52166  1  0  0  0  0
 52167  1  0  0  0  0
 53 59  1  0  0  0  0
 53168  1  0  0  0  0
 53169  1  0  0  0  0
 54 60  1  0  0  0  0
 54170  1  0  0  0  0
 54171  1  0  0  0  0
 55 61  1  0  0  0  0
 55172  1  0  0  0  0
 55173  1  0  0  0  0
 56 62  1  0  0  0  0
 56174  1  0  0  0  0
 56175  1  0  0  0  0
 57 63  1  0  0  0  0
 57176  1  0  0  0  0
 57177  1  0  0  0  0
 58 64  1  0  0  0  0
 58178  1  0  0  0  0
 58179  1  0  0  0  0
 59 65  1  0  0  0  0
 59180  1  0  0  0  0
 59181  1  0  0  0  0
 60 66  1  0  0  0  0
 60182  1  0  0  0  0
 60183  1  0  0  0  0
 61 68  1  0  0  0  0
 61184  1  0  0  0  0
 61185  1  0  0  0  0
 62 69  1  0  0  0  0
 62186  1  0  0  0  0
 62187  1  0  0  0  0
 63 70  1  0  0  0  0
 63188  1  0  0  0  0
 63189  1  0  0  0  0
 64 71  1  0  0  0  0
 64190  1  0  0  0  0
 64191  1  0  0  0  0
 65 72  1  0  0  0  0
 65192  1  0  0  0  0
 65193  1  0  0  0  0
 66 73  1  0  0  0  0
 66194  1  0  0  0  0
 66195  1  0  0  0  0
 67 74  1  0  0  0  0
 67 75  1  0  0  0  0
 67196  1  0  0  0  0
 69197  1  0  0  0  0
 69198  1  0  0  0  0
 69199  1  0  0  0  0
 70200  1  0  0  0  0
 70201  1  0  0  0  0
 70202  1  0  0  0  0
 71203  1  0  0  0  0
 71204  1  0  0  0  0
 71205  1  0  0  0  0
 74206  1  0  0  0  0
 74207  1  0  0  0  0
 75208  1  0  0  0  0
 75209  1  0  0  0  0
M  END
> <PUBCHEM_COMPOUND_CID>
62726

> <PUBCHEM_COMPOUND_CANONICALIZED>
1

> <PUBCHEM_CACTVS_COMPLEXITY>
1070

> <PUBCHEM_CACTVS_HBOND_ACCEPTOR>
6

> <PUBCHEM_CACTVS_HBOND_DONOR>
0

> <PUBCHEM_CACTVS_ROTATABLE_BOND>
68

> <PUBCHEM_CACTVS_SUBSKEYS>
AAADcfB8OAAAAAAAAAAAAAAAAAAAAAAAAAAAAAAAAAAAAAAAAAAAGgAAAAAACBSggAICCAAABAAIAACQCAAAAAAAAAAAAAEAAAABABIAAAACAAAFAAACAAGIyKCAAAAAAAAAAAAAAAAAAAAAAAAAAAAAAA==

> <PUBCHEM_IUPAC_OPENEYE_NAME>
2,3-di(docosanoyloxy)propyl docosanoate

> <PUBCHEM_IUPAC_CAS_NAME>
docosanoic acid 2,3-bis(1-oxodocosoxy)propyl ester

> <PUBCHEM_IUPAC_NAME_MARKUP>
2,3-di(docosanoyloxy)propyl docosanoate

> <PUBCHEM_IUPAC_NAME>
2,3-di(docosanoyloxy)propyl docosanoate

> <PUBCHEM_IUPAC_SYSTEMATIC_NAME>
2,3-di(docosanoyloxy)propyl docosanoate

> <PUBCHEM_IUPAC_TRADITIONAL_NAME>
behenic acid 2,3-di(docosanoyloxy)propyl ester

> <PUBCHEM_IUPAC_INCHI>
InChI=1S/C69H134O6/c1-4-7-10-13-16-19-22-25-28-31-34-37-40-43-46-49-52-55-58-61-67(70)73-64-66(75-69(72)63-60-57-54-51-48-45-42-39-36-33-30-27-24-21-18-15-12-9-6-3)65-74-68(71)62-59-56-53-50-47-44-41-38-35-32-29-26-23-20-17-14-11-8-5-2/h66H,4-65H2,1-3H3

> <PUBCHEM_IUPAC_INCHIKEY>
DMBUODUULYCPAK-UHFFFAOYSA-N

> <PUBCHEM_XLOGP3_AA>
31.7

> <PUBCHEM_EXACT_MASS>
1059.01804199

> <PUBCHEM_MOLECULAR_FORMULA>
C69H134O6

> <PUBCHEM_MOLECULAR_WEIGHT>
1059.8

> <PUBCHEM_SMILES>
CCCCCCCCCCCCCCCCCCCCCC(=O)OCC(COC(=O)CCCCCCCCCCCCCCCCCCCCC)OC(=O)CCCCCCCCCCCCCCCCCCCCC

> <PUBCHEM_OPENEYE_CAN_SMILES>
CCCCCCCCCCCCCCCCCCCCCC(=O)OCC(COC(=O)CCCCCCCCCCCCCCCCCCCCC)OC(=O)CCCCCCCCCCCCCCCCCCCCC

> <PUBCHEM_OPENEYE_ISO_SMILES>
CCCCCCCCCCCCCCCCCCCCCC(=O)OCC(COC(=O)CCCCCCCCCCCCCCCCCCCCC)OC(=O)CCCCCCCCCCCCCCCCCCCCC

> <PUBCHEM_CACTVS_TPSA>
78.9

> <PUBCHEM_MONOISOTOPIC_WEIGHT>
1059.01804199

> <PUBCHEM_TOTAL_CHARGE>
0

> <PUBCHEM_HEAVY_ATOM_COUNT>
75

> <PUBCHEM_ATOM_DEF_STEREO_COUNT>
0

> <PUBCHEM_ATOM_UDEF_STEREO_COUNT>
0

> <PUBCHEM_BOND_DEF_STEREO_COUNT>
0

> <PUBCHEM_BOND_UDEF_STEREO_COUNT>
0

> <PUBCHEM_ISOTOPIC_ATOM_COUNT>
0

> <PUBCHEM_COMPONENT_COUNT>
1

> <PUBCHEM_CACTVS_TAUTO_COUNT>
-1

> <PUBCHEM_COORDINATE_TYPE>
1
5
255

$$$$
