633683
  -OEChem-04042505452D

 45 50  0     0  0  0  0  0  0999 V2000
    6.5033   -1.7267    0.0000 O   0  0  0  0  0  0  0  0  0  0  0  0
    5.0066   -2.5985    0.0000 O   0  0  0  0  0  0  0  0  0  0  0  0
    9.5658    0.0293    0.0000 N   0  0  0  0  0  0  0  0  0  0  0  0
   10.1494    0.8340    0.0000 N   0  0  0  0  0  0  0  0  0  0  0  0
   10.1494   -0.7755    0.0000 N   0  0  0  0  0  0  0  0  0  0  0  0
   11.0956    0.5293    0.0000 C   0  0  0  0  0  0  0  0  0  0  0  0
   11.9617    1.0292    0.0000 C   0  0  0  0  0  0  0  0  0  0  0  0
   11.0956   -0.4707    0.0000 C   0  0  0  0  0  0  0  0  0  0  0  0
    8.5658    0.0293    0.0000 C   0  0  0  0  0  0  0  0  0  0  0  0
   12.8277    0.5293    0.0000 C   0  0  0  0  0  0  0  0  0  0  0  0
    6.4966    0.0053    0.0000 C   0  0  0  0  0  0  0  0  0  0  0  0
    7.0000   -0.8588    0.0000 C   0  0  0  0  0  0  0  0  0  0  0  0
    8.0415   -0.8708    0.0000 C   0  0  0  0  0  0  0  0  0  0  0  0
   11.9617   -0.9707    0.0000 C   0  0  0  0  0  0  0  0  0  0  0  0
    8.0415    0.9293    0.0000 C   0  0  0  0  0  0  0  0  0  0  0  0
   12.8277   -0.4707    0.0000 C   0  0  0  0  0  0  0  0  0  0  0  0
    7.0000    0.9173    0.0000 C   0  0  0  0  0  0  0  0  0  0  0  0
    5.0000   -0.8665    0.0000 C   0  0  0  0  0  0  0  0  0  0  0  0
    5.4966    0.0015    0.0000 C   0  0  0  0  0  0  0  0  0  0  0  0
   11.9456    2.0708    0.0000 C   0  0  0  0  0  0  0  0  0  0  0  0
   13.7377    1.0361    0.0000 C   0  0  0  0  0  0  0  0  0  0  0  0
    4.0000   -0.8703    0.0000 C   0  0  0  0  0  0  0  0  0  0  0  0
    5.5033   -1.7306    0.0000 C   0  0  0  0  0  0  0  0  0  0  0  0
   12.8436    2.5985    0.0000 C   0  0  0  0  0  0  0  0  0  0  0  0
   13.7457    2.0777    0.0000 C   0  0  0  0  0  0  0  0  0  0  0  0
    3.4966   -0.0062    0.0000 C   0  0  0  0  0  0  0  0  0  0  0  0
    3.5033   -1.7383    0.0000 C   0  0  0  0  0  0  0  0  0  0  0  0
    2.4967   -0.0101    0.0000 C   0  0  0  0  0  0  0  0  0  0  0  0
    2.5033   -1.7421    0.0000 C   0  0  0  0  0  0  0  0  0  0  0  0
    2.0000   -0.8780    0.0000 C   0  0  0  0  0  0  0  0  0  0  0  0
    8.3474   -1.4101    0.0000 H   0  0  0  0  0  0  0  0  0  0  0  0
   11.9617   -1.5908    0.0000 H   0  0  0  0  0  0  0  0  0  0  0  0
    8.3474    1.4686    0.0000 H   0  0  0  0  0  0  0  0  0  0  0  0
   13.3646   -0.7807    0.0000 H   0  0  0  0  0  0  0  0  0  0  0  0
    6.6817    1.4494    0.0000 H   0  0  0  0  0  0  0  0  0  0  0  0
    5.1846    0.5372    0.0000 H   0  0  0  0  0  0  0  0  0  0  0  0
   11.4051    2.3745    0.0000 H   0  0  0  0  0  0  0  0  0  0  0  0
   14.2710    0.7199    0.0000 H   0  0  0  0  0  0  0  0  0  0  0  0
   12.8413    3.2185    0.0000 H   0  0  0  0  0  0  0  0  0  0  0  0
   14.2839    2.3856    0.0000 H   0  0  0  0  0  0  0  0  0  0  0  0
    3.8046    0.5319    0.0000 H   0  0  0  0  0  0  0  0  0  0  0  0
    3.8154   -2.2740    0.0000 H   0  0  0  0  0  0  0  0  0  0  0  0
    2.1846    0.5256    0.0000 H   0  0  0  0  0  0  0  0  0  0  0  0
    2.1954   -2.2803    0.0000 H   0  0  0  0  0  0  0  0  0  0  0  0
    1.3800   -0.8804    0.0000 H   0  0  0  0  0  0  0  0  0  0  0  0
  1 12  1  0  0  0  0
  1 23  1  0  0  0  0
  2 23  2  0  0  0  0
  3  4  1  0  0  0  0
  3  5  1  0  0  0  0
  3  9  1  0  0  0  0
  4  6  2  0  0  0  0
  5  8  2  0  0  0  0
  6  7  1  0  0  0  0
  6  8  1  0  0  0  0
  7 10  1  0  0  0  0
  7 20  2  0  0  0  0
  8 14  1  0  0  0  0
  9 13  2  0  0  0  0
  9 15  1  0  0  0  0
 10 16  1  0  0  0  0
 10 21  2  0  0  0  0
 11 12  2  0  0  0  0
 11 17  1  0  0  0  0
 11 19  1  0  0  0  0
 12 13  1  0  0  0  0
 13 31  1  0  0  0  0
 14 16  2  0  0  0  0
 14 32  1  0  0  0  0
 15 17  2  0  0  0  0
 15 33  1  0  0  0  0
 16 34  1  0  0  0  0
 17 35  1  0  0  0  0
 18 19  2  0  0  0  0
 18 22  1  0  0  0  0
 18 23  1  0  0  0  0
 19 36  1  0  0  0  0
 20 24  1  0  0  0  0
 20 37  1  0  0  0  0
 21 25  1  0  0  0  0
 21 38  1  0  0  0  0
 22 26  2  0  0  0  0
 22 27  1  0  0  0  0
 24 25  2  0  0  0  0
 24 39  1  0  0  0  0
 25 40  1  0  0  0  0
 26 28  1  0  0  0  0
 26 41  1  0  0  0  0
 27 29  2  0  0  0  0
 27 42  1  0  0  0  0
 28 30  2  0  0  0  0
 28 43  1  0  0  0  0
 29 30  1  0  0  0  0
 29 44  1  0  0  0  0
 30 45  1  0  0  0  0
M  END
> <PUBCHEM_COMPOUND_CID>
633683

> <PUBCHEM_COMPOUND_CANONICALIZED>
1

> <PUBCHEM_CACTVS_COMPLEXITY>
688

> <PUBCHEM_CACTVS_HBOND_ACCEPTOR>
4

> <PUBCHEM_CACTVS_HBOND_DONOR>
0

> <PUBCHEM_CACTVS_ROTATABLE_BOND>
2

> <PUBCHEM_CACTVS_SUBSKEYS>
AAADccB7MAAAAAAAAAAAAAAAAAAAAWAAAAAwYMGCAAAAAFjB9AAAHgAIAAAADAyBngAwzvAABACqAyTySACSDAQgMgAYmCE2fNgMZrKEtZuCOiDmyBkI6YeY2KGOiAAAQgAaACAQAACEADQAQAAAAAAAAA==

> <PUBCHEM_IUPAC_OPENEYE_NAME>
7-benzo[e]benzotriazol-2-yl-3-phenyl-chromen-2-one

> <PUBCHEM_IUPAC_CAS_NAME>
7-(2-benzo[e]benzotriazolyl)-3-phenyl-1-benzopyran-2-one

> <PUBCHEM_IUPAC_NAME_MARKUP>
7-benzo[e]benzotriazol-2-yl-3-phenylchromen-2-one

> <PUBCHEM_IUPAC_NAME>
7-benzo[e]benzotriazol-2-yl-3-phenylchromen-2-one

> <PUBCHEM_IUPAC_SYSTEMATIC_NAME>
7-benzo[e]benzotriazol-2-yl-3-phenyl-chromen-2-one

> <PUBCHEM_IUPAC_TRADITIONAL_NAME>
7-benzo[e]benzotriazol-2-yl-3-phenyl-coumarin

> <PUBCHEM_IUPAC_INCHI>
InChI=1S/C25H15N3O2/c29-25-21(16-6-2-1-3-7-16)14-18-10-12-19(15-23(18)30-25)28-26-22-13-11-17-8-4-5-9-20(17)24(22)27-28/h1-15H

> <PUBCHEM_IUPAC_INCHIKEY>
ZHMDPDYBWDMLGE-UHFFFAOYSA-N

> <PUBCHEM_XLOGP3_AA>
6.2

> <PUBCHEM_EXACT_MASS>
389.116426730

> <PUBCHEM_MOLECULAR_FORMULA>
C25H15N3O2

> <PUBCHEM_MOLECULAR_WEIGHT>
389.4

> <PUBCHEM_SMILES>
C1=CC=C(C=C1)C2=CC3=C(C=C(C=C3)N4N=C5C=CC6=CC=CC=C6C5=N4)OC2=O

> <PUBCHEM_OPENEYE_CAN_SMILES>
C1=CC=C(C=C1)C2=CC3=C(C=C(C=C3)N4N=C5C=CC6=CC=CC=C6C5=N4)OC2=O

> <PUBCHEM_OPENEYE_ISO_SMILES>
C1=CC=C(C=C1)C2=CC3=C(C=C(C=C3)N4N=C5C=CC6=CC=CC=C6C5=N4)OC2=O

> <PUBCHEM_CACTVS_TPSA>
57

> <PUBCHEM_MONOISOTOPIC_WEIGHT>
389.116426730

> <PUBCHEM_TOTAL_CHARGE>
0

> <PUBCHEM_HEAVY_ATOM_COUNT>
30

> <PUBCHEM_ATOM_DEF_STEREO_COUNT>
0

> <PUBCHEM_ATOM_UDEF_STEREO_COUNT>
0

> <PUBCHEM_BOND_DEF_STEREO_COUNT>
0

> <PUBCHEM_BOND_UDEF_STEREO_COUNT>
0

> <PUBCHEM_ISOTOPIC_ATOM_COUNT>
0

> <PUBCHEM_COMPONENT_COUNT>
1

> <PUBCHEM_CACTVS_TAUTO_COUNT>
-1

> <PUBCHEM_COORDINATE_TYPE>
1
5
255

> <PUBCHEM_BONDANNOTATIONS>
1  12  8
1  23  8
10  16  8
10  21  8
11  12  8
11  17  8
11  19  8
12  13  8
14  16  8
15  17  8
18  19  8
18  23  8
20  24  8
21  25  8
22  26  8
22  27  8
24  25  8
26  28  8
27  29  8
28  30  8
29  30  8
3  4  8
3  5  8
4  6  8
5  8  8
6  7  8
6  8  8
7  10  8
7  20  8
8  14  8
9  13  8
9  15  8

$$$$
