6433657
  -OEChem-04042512402D

102107  0     0  0  0  0  0  0999 V2000
    6.3301   -1.2500    0.0000 S   0  0  0  0  0  0  0  0  0  0  0  0
   10.6603    1.2500    0.0000 S   0  0  0  0  0  0  0  0  0  0  0  0
   11.5263    2.7500    0.0000 Na  0  3  0  0  0  0  0  0  0  0  0  0
    5.4641   -2.7500    0.0000 Na  0  3  0  0  0  0  0  0  0  0  0  0
    8.0622    5.7500    0.0000 O   0  0  0  0  0  0  0  0  0  0  0  0
    8.9282   -5.7500    0.0000 O   0  0  0  0  0  0  0  0  0  0  0  0
    6.3301   -2.2500    0.0000 O   0  5  0  0  0  0  0  0  0  0  0  0
   10.6603    2.2500    0.0000 O   0  5  0  0  0  0  0  0  0  0  0  0
    5.3301   -1.2500    0.0000 O   0  0  0  0  0  0  0  0  0  0  0  0
    7.3301   -1.2500    0.0000 O   0  0  0  0  0  0  0  0  0  0  0  0
   11.6603    1.2500    0.0000 O   0  0  0  0  0  0  0  0  0  0  0  0
    9.6602    1.2500    0.0000 O   0  0  0  0  0  0  0  0  0  0  0  0
    6.3301    4.7500    0.0000 N   0  0  0  0  0  0  0  0  0  0  0  0
   10.6603   -4.7500    0.0000 N   0  0  0  0  0  0  0  0  0  0  0  0
    5.4641    3.2500    0.0000 N   0  0  0  0  0  0  0  0  0  0  0  0
   11.5263   -3.2500    0.0000 N   0  0  0  0  0  0  0  0  0  0  0  0
    4.5981    4.7500    0.0000 N   0  0  0  0  0  0  0  0  0  0  0  0
   12.3923   -4.7500    0.0000 N   0  0  0  0  0  0  0  0  0  0  0  0
    4.5981    1.7500    0.0000 N   0  0  0  0  0  0  0  0  0  0  0  0
   12.3923   -1.7500    0.0000 N   0  0  0  0  0  0  0  0  0  0  0  0
    3.7320    3.2500    0.0000 N   0  0  0  0  0  0  0  0  0  0  0  0
   13.2583   -3.2500    0.0000 N   0  0  0  0  0  0  0  0  0  0  0  0
    2.8660    4.7500    0.0000 N   0  0  0  0  0  0  0  0  0  0  0  0
   14.1244   -4.7500    0.0000 N   0  0  0  0  0  0  0  0  0  0  0  0
    7.1962    4.2500    0.0000 C   0  0  0  0  0  0  0  0  0  0  0  0
    6.3301    5.7500    0.0000 C   0  0  0  0  0  0  0  0  0  0  0  0
    9.7942   -4.2500    0.0000 C   0  0  0  0  0  0  0  0  0  0  0  0
   10.6603   -5.7500    0.0000 C   0  0  0  0  0  0  0  0  0  0  0  0
    8.0622    4.7500    0.0000 C   0  0  0  0  0  0  0  0  0  0  0  0
    7.1962    6.2500    0.0000 C   0  0  0  0  0  0  0  0  0  0  0  0
    8.9282   -4.7500    0.0000 C   0  0  0  0  0  0  0  0  0  0  0  0
    9.7942   -6.2500    0.0000 C   0  0  0  0  0  0  0  0  0  0  0  0
    5.4641    4.2500    0.0000 C   0  0  0  0  0  0  0  0  0  0  0  0
   11.5263   -4.2500    0.0000 C   0  0  0  0  0  0  0  0  0  0  0  0
    4.5981    2.7500    0.0000 C   0  0  0  0  0  0  0  0  0  0  0  0
   12.3923   -2.7500    0.0000 C   0  0  0  0  0  0  0  0  0  0  0  0
    3.7320    4.2500    0.0000 C   0  0  0  0  0  0  0  0  0  0  0  0
   13.2583   -4.2500    0.0000 C   0  0  0  0  0  0  0  0  0  0  0  0
    5.4641    1.2500    0.0000 C   0  0  0  0  0  0  0  0  0  0  0  0
   11.5263   -1.2500    0.0000 C   0  0  0  0  0  0  0  0  0  0  0  0
    7.1962    0.2500    0.0000 C   0  0  0  0  0  0  0  0  0  0  0  0
    9.7942   -0.2500    0.0000 C   0  0  0  0  0  0  0  0  0  0  0  0
    6.3301   -0.2500    0.0000 C   0  0  0  0  0  0  0  0  0  0  0  0
   10.6603    0.2500    0.0000 C   0  0  0  0  0  0  0  0  0  0  0  0
    5.4641    0.2500    0.0000 C   0  0  0  0  0  0  0  0  0  0  0  0
   11.5263   -0.2500    0.0000 C   0  0  0  0  0  0  0  0  0  0  0  0
    6.3301    1.7500    0.0000 C   0  0  0  0  0  0  0  0  0  0  0  0
   10.6603   -1.7500    0.0000 C   0  0  0  0  0  0  0  0  0  0  0  0
    7.1962    1.2500    0.0000 C   0  0  0  0  0  0  0  0  0  0  0  0
    9.7942   -1.2500    0.0000 C   0  0  0  0  0  0  0  0  0  0  0  0
    8.0622   -0.2500    0.0000 C   0  0  0  0  0  0  0  0  0  0  0  0
    8.9282    0.2500    0.0000 C   0  0  0  0  0  0  0  0  0  0  0  0
    2.8660    5.7500    0.0000 C   0  0  0  0  0  0  0  0  0  0  0  0
   14.1244   -5.7500    0.0000 C   0  0  0  0  0  0  0  0  0  0  0  0
    2.0000    6.2500    0.0000 C   0  0  0  0  0  0  0  0  0  0  0  0
   13.2583   -6.2500    0.0000 C   0  0  0  0  0  0  0  0  0  0  0  0
    3.7320    6.2500    0.0000 C   0  0  0  0  0  0  0  0  0  0  0  0
   14.9904   -6.2500    0.0000 C   0  0  0  0  0  0  0  0  0  0  0  0
    2.0000    7.2500    0.0000 C   0  0  0  0  0  0  0  0  0  0  0  0
   13.2583   -7.2500    0.0000 C   0  0  0  0  0  0  0  0  0  0  0  0
    3.7320    7.2500    0.0000 C   0  0  0  0  0  0  0  0  0  0  0  0
   14.9904   -7.2500    0.0000 C   0  0  0  0  0  0  0  0  0  0  0  0
    2.8660    7.7500    0.0000 C   0  0  0  0  0  0  0  0  0  0  0  0
   14.1244   -7.7500    0.0000 C   0  0  0  0  0  0  0  0  0  0  0  0
    6.7976    3.7750    0.0000 H   0  0  0  0  0  0  0  0  0  0  0  0
    7.5947    3.7750    0.0000 H   0  0  0  0  0  0  0  0  0  0  0  0
    6.1181    6.3326    0.0000 H   0  0  0  0  0  0  0  0  0  0  0  0
    5.7196    5.6423    0.0000 H   0  0  0  0  0  0  0  0  0  0  0  0
   10.1928   -3.7750    0.0000 H   0  0  0  0  0  0  0  0  0  0  0  0
    9.3957   -3.7750    0.0000 H   0  0  0  0  0  0  0  0  0  0  0  0
   10.8723   -6.3326    0.0000 H   0  0  0  0  0  0  0  0  0  0  0  0
   11.2708   -5.6423    0.0000 H   0  0  0  0  0  0  0  0  0  0  0  0
    8.2742    4.1674    0.0000 H   0  0  0  0  0  0  0  0  0  0  0  0
    8.6728    4.8577    0.0000 H   0  0  0  0  0  0  0  0  0  0  0  0
    7.5947    6.7250    0.0000 H   0  0  0  0  0  0  0  0  0  0  0  0
    6.7976    6.7250    0.0000 H   0  0  0  0  0  0  0  0  0  0  0  0
    8.7162   -4.1674    0.0000 H   0  0  0  0  0  0  0  0  0  0  0  0
    8.3176   -4.8577    0.0000 H   0  0  0  0  0  0  0  0  0  0  0  0
    9.3957   -6.7250    0.0000 H   0  0  0  0  0  0  0  0  0  0  0  0
   10.1928   -6.7250    0.0000 H   0  0  0  0  0  0  0  0  0  0  0  0
    4.0611    1.4400    0.0000 H   0  0  0  0  0  0  0  0  0  0  0  0
   12.9292   -1.4400    0.0000 H   0  0  0  0  0  0  0  0  0  0  0  0
    4.9272   -0.0600    0.0000 H   0  0  0  0  0  0  0  0  0  0  0  0
   12.0632    0.0600    0.0000 H   0  0  0  0  0  0  0  0  0  0  0  0
    6.3301    2.3700    0.0000 H   0  0  0  0  0  0  0  0  0  0  0  0
   10.6603   -2.3700    0.0000 H   0  0  0  0  0  0  0  0  0  0  0  0
    7.7331    1.5600    0.0000 H   0  0  0  0  0  0  0  0  0  0  0  0
    9.2573   -1.5600    0.0000 H   0  0  0  0  0  0  0  0  0  0  0  0
    8.0622   -0.8700    0.0000 H   0  0  0  0  0  0  0  0  0  0  0  0
    8.9282    0.8700    0.0000 H   0  0  0  0  0  0  0  0  0  0  0  0
    2.3291    4.4400    0.0000 H   0  0  0  0  0  0  0  0  0  0  0  0
   14.6613   -4.4400    0.0000 H   0  0  0  0  0  0  0  0  0  0  0  0
    1.4631    5.9400    0.0000 H   0  0  0  0  0  0  0  0  0  0  0  0
   12.7214   -5.9400    0.0000 H   0  0  0  0  0  0  0  0  0  0  0  0
    4.2690    5.9400    0.0000 H   0  0  0  0  0  0  0  0  0  0  0  0
   15.5273   -5.9400    0.0000 H   0  0  0  0  0  0  0  0  0  0  0  0
    1.4631    7.5600    0.0000 H   0  0  0  0  0  0  0  0  0  0  0  0
   12.7214   -7.5600    0.0000 H   0  0  0  0  0  0  0  0  0  0  0  0
    4.2690    7.5600    0.0000 H   0  0  0  0  0  0  0  0  0  0  0  0
   15.5273   -7.5600    0.0000 H   0  0  0  0  0  0  0  0  0  0  0  0
    2.8660    8.3700    0.0000 H   0  0  0  0  0  0  0  0  0  0  0  0
   14.1244   -8.3700    0.0000 H   0  0  0  0  0  0  0  0  0  0  0  0
  1  7  1  0  0  0  0
  1  9  2  0  0  0  0
  1 10  2  0  0  0  0
  1 43  1  0  0  0  0
  2  8  1  0  0  0  0
  2 11  2  0  0  0  0
  2 12  2  0  0  0  0
  2 44  1  0  0  0  0
  5 29  1  0  0  0  0
  5 30  1  0  0  0  0
  6 31  1  0  0  0  0
  6 32  1  0  0  0  0
 13 25  1  0  0  0  0
 13 26  1  0  0  0  0
 13 33  1  0  0  0  0
 14 27  1  0  0  0  0
 14 28  1  0  0  0  0
 14 34  1  0  0  0  0
 15 33  1  0  0  0  0
 15 35  2  0  0  0  0
 16 34  1  0  0  0  0
 16 36  2  0  0  0  0
 17 33  2  0  0  0  0
 17 37  1  0  0  0  0
 18 34  2  0  0  0  0
 18 38  1  0  0  0  0
 19 35  1  0  0  0  0
 19 39  1  0  0  0  0
 19 81  1  0  0  0  0
 20 36  1  0  0  0  0
 20 40  1  0  0  0  0
 20 82  1  0  0  0  0
 21 35  1  0  0  0  0
 21 37  2  0  0  0  0
 22 36  1  0  0  0  0
 22 38  2  0  0  0  0
 23 37  1  0  0  0  0
 23 53  1  0  0  0  0
 23 91  1  0  0  0  0
 24 38  1  0  0  0  0
 24 54  1  0  0  0  0
 24 92  1  0  0  0  0
 25 29  1  0  0  0  0
 25 65  1  0  0  0  0
 25 66  1  0  0  0  0
 26 30  1  0  0  0  0
 26 67  1  0  0  0  0
 26 68  1  0  0  0  0
 27 31  1  0  0  0  0
 27 69  1  0  0  0  0
 27 70  1  0  0  0  0
 28 32  1  0  0  0  0
 28 71  1  0  0  0  0
 28 72  1  0  0  0  0
 29 73  1  0  0  0  0
 29 74  1  0  0  0  0
 30 75  1  0  0  0  0
 30 76  1  0  0  0  0
 31 77  1  0  0  0  0
 31 78  1  0  0  0  0
 32 79  1  0  0  0  0
 32 80  1  0  0  0  0
 39 45  2  0  0  0  0
 39 47  1  0  0  0  0
 40 46  2  0  0  0  0
 40 48  1  0  0  0  0
 41 43  2  0  0  0  0
 41 49  1  0  0  0  0
 41 51  1  0  0  0  0
 42 44  2  0  0  0  0
 42 50  1  0  0  0  0
 42 52  1  0  0  0  0
 43 45  1  0  0  0  0
 44 46  1  0  0  0  0
 45 83  1  0  0  0  0
 46 84  1  0  0  0  0
 47 49  2  0  0  0  0
 47 85  1  0  0  0  0
 48 50  2  0  0  0  0
 48 86  1  0  0  0  0
 49 87  1  0  0  0  0
 50 88  1  0  0  0  0
 51 52  2  0  0  0  0
 51 89  1  0  0  0  0
 52 90  1  0  0  0  0
 53 55  2  0  0  0  0
 53 57  1  0  0  0  0
 54 56  2  0  0  0  0
 54 58  1  0  0  0  0
 55 59  1  0  0  0  0
 55 93  1  0  0  0  0
 56 60  1  0  0  0  0
 56 94  1  0  0  0  0
 57 61  2  0  0  0  0
 57 95  1  0  0  0  0
 58 62  2  0  0  0  0
 58 96  1  0  0  0  0
 59 63  2  0  0  0  0
 59 97  1  0  0  0  0
 60 64  2  0  0  0  0
 60 98  1  0  0  0  0
 61 63  1  0  0  0  0
 61 99  1  0  0  0  0
 62 64  1  0  0  0  0
 62100  1  0  0  0  0
 63101  1  0  0  0  0
 64102  1  0  0  0  0
M  CHG  4   3   1   4   1   7  -1   8  -1
M  END
> <PUBCHEM_COMPOUND_CID>
6433657

> <PUBCHEM_COMPOUND_CANONICALIZED>
1

> <PUBCHEM_CACTVS_COMPLEXITY>
1490

> <PUBCHEM_CACTVS_HBOND_ACCEPTOR>
20

> <PUBCHEM_CACTVS_HBOND_DONOR>
4

> <PUBCHEM_CACTVS_ROTATABLE_BOND>
12

> <PUBCHEM_CACTVS_SUBSKEYS>
AAADcfB//DBgAAAAAAAAAAAAAAAAAAAAAAA8ePHiAAAAAAAB9AAAHgQQAAAADAjh2AYx0YfIFAKgAiRCZHDCAEkhAoAJiBgIZIiKKCLAmZGHIAxokALYyCcQgAAOCAAAACAEAAAQAAAAQAgAAAAAAAAAAA==

> <PUBCHEM_IUPAC_OPENEYE_NAME>
disodium;5-[(4-anilino-6-morpholino-1,3,5-triazin-2-yl)amino]-2-[(E)-2-[4-[(4-anilino-6-morpholino-1,3,5-triazin-2-yl)amino]-2-sulfonato-phenyl]vinyl]benzenesulfonate

> <PUBCHEM_IUPAC_CAS_NAME>
disodium;5-[[4-anilino-6-(4-morpholinyl)-1,3,5-triazin-2-yl]amino]-2-[(E)-2-[4-[[4-anilino-6-(4-morpholinyl)-1,3,5-triazin-2-yl]amino]-2-sulfonatophenyl]ethenyl]benzenesulfonate

> <PUBCHEM_IUPAC_NAME_MARKUP>
disodium;5-[(4-anilino-6-morpholin-4-yl-1,3,5-triazin-2-yl)amino]-2-[(<I>E</I>)-2-[4-[(4-anilino-6-morpholin-4-yl-1,3,5-triazin-2-yl)amino]-2-sulfonatophenyl]ethenyl]benzenesulfonate

> <PUBCHEM_IUPAC_NAME>
disodium;5-[(4-anilino-6-morpholin-4-yl-1,3,5-triazin-2-yl)amino]-2-[(E)-2-[4-[(4-anilino-6-morpholin-4-yl-1,3,5-triazin-2-yl)amino]-2-sulfonatophenyl]ethenyl]benzenesulfonate

> <PUBCHEM_IUPAC_SYSTEMATIC_NAME>
disodium;5-[(4-morpholin-4-yl-6-phenylazanyl-1,3,5-triazin-2-yl)amino]-2-[(E)-2-[4-[(4-morpholin-4-yl-6-phenylazanyl-1,3,5-triazin-2-yl)amino]-2-sulfonato-phenyl]ethenyl]benzenesulfonate

> <PUBCHEM_IUPAC_TRADITIONAL_NAME>
disodium;5-[(4-anilino-6-morpholino-s-triazin-2-yl)amino]-2-[(E)-2-[4-[(4-anilino-6-morpholino-s-triazin-2-yl)amino]-2-sulfonato-phenyl]vinyl]besylate

> <PUBCHEM_IUPAC_INCHI>
InChI=1S/C40H40N12O8S2.2Na/c53-61(54,55)33-25-31(43-37-45-35(41-29-7-3-1-4-8-29)47-39(49-37)51-17-21-59-22-18-51)15-13-27(33)11-12-28-14-16-32(26-34(28)62(56,57)58)44-38-46-36(42-30-9-5-2-6-10-30)48-40(50-38)52-19-23-60-24-20-52;;/h1-16,25-26H,17-24H2,(H,53,54,55)(H,56,57,58)(H2,41,43,45,47,49)(H2,42,44,46,48,50);;/q;2*+1/p-2/b12-11+;;

> <PUBCHEM_IUPAC_INCHIKEY>
VUJGKADZTYCLIL-YHPRVSEPSA-L

> <PUBCHEM_EXACT_MASS>
924.21723713

> <PUBCHEM_MOLECULAR_FORMULA>
C40H38N12Na2O8S2

> <PUBCHEM_MOLECULAR_WEIGHT>
924.9

> <PUBCHEM_SMILES>
C1COCCN1C2=NC(=NC(=N2)NC3=CC(=C(C=C3)/C=C/C4=C(C=C(C=C4)NC5=NC(=NC(=N5)NC6=CC=CC=C6)N7CCOCC7)S(=O)(=O)[O-])S(=O)(=O)[O-])NC8=CC=CC=C8.[Na+].[Na+]

> <PUBCHEM_OPENEYE_CAN_SMILES>
C1COCCN1C2=NC(=NC(=N2)NC3=CC(=C(C=C3)C=CC4=C(C=C(C=C4)NC5=NC(=NC(=N5)NC6=CC=CC=C6)N7CCOCC7)S(=O)(=O)[O-])S(=O)(=O)[O-])NC8=CC=CC=C8.[Na+].[Na+]

> <PUBCHEM_OPENEYE_ISO_SMILES>
C1COCCN1C2=NC(=NC(=N2)NC3=CC(=C(C=C3)/C=C/C4=C(C=C(C=C4)NC5=NC(=NC(=N5)NC6=CC=CC=C6)N7CCOCC7)S(=O)(=O)[O-])S(=O)(=O)[O-])NC8=CC=CC=C8.[Na+].[Na+]

> <PUBCHEM_CACTVS_TPSA>
282

> <PUBCHEM_MONOISOTOPIC_WEIGHT>
924.21723713

> <PUBCHEM_TOTAL_CHARGE>
0

> <PUBCHEM_HEAVY_ATOM_COUNT>
64

> <PUBCHEM_ATOM_DEF_STEREO_COUNT>
0

> <PUBCHEM_ATOM_UDEF_STEREO_COUNT>
0

> <PUBCHEM_BOND_DEF_STEREO_COUNT>
1

> <PUBCHEM_BOND_UDEF_STEREO_COUNT>
0

> <PUBCHEM_ISOTOPIC_ATOM_COUNT>
0

> <PUBCHEM_COMPONENT_COUNT>
3

> <PUBCHEM_CACTVS_TAUTO_COUNT>
-1

> <PUBCHEM_COORDINATE_TYPE>
1
5
255

> <PUBCHEM_BONDANNOTATIONS>
15  33  8
15  35  8
16  34  8
16  36  8
17  33  8
17  37  8
18  34  8
18  38  8
21  35  8
21  37  8
22  36  8
22  38  8
39  45  8
39  47  8
40  46  8
40  48  8
41  43  8
41  49  8
42  44  8
42  50  8
43  45  8
44  46  8
47  49  8
48  50  8
53  55  8
53  57  8
54  56  8
54  58  8
55  59  8
56  60  8
57  61  8
58  62  8
59  63  8
60  64  8
61  63  8
62  64  8

$$$$
