6434593
  -OEChem-04042512412D

108111  0     0  0  0  0  0  0999 V2000
    6.3301   -1.2500    0.0000 S   0  0  0  0  0  0  0  0  0  0  0  0
   10.6603    1.2500    0.0000 S   0  0  0  0  0  0  0  0  0  0  0  0
   11.5263    2.7500    0.0000 Na  0  3  0  0  0  0  0  0  0  0  0  0
    5.4641   -2.7500    0.0000 Na  0  3  0  0  0  0  0  0  0  0  0  0
    7.1962    7.2500    0.0000 O   0  0  0  0  0  0  0  0  0  0  0  0
    8.9282    4.2500    0.0000 O   0  0  0  0  0  0  0  0  0  0  0  0
    9.7942   -7.2500    0.0000 O   0  0  0  0  0  0  0  0  0  0  0  0
    8.0622   -4.2500    0.0000 O   0  0  0  0  0  0  0  0  0  0  0  0
    6.3301   -2.2500    0.0000 O   0  5  0  0  0  0  0  0  0  0  0  0
   10.6603    2.2500    0.0000 O   0  5  0  0  0  0  0  0  0  0  0  0
    5.3301   -1.2500    0.0000 O   0  0  0  0  0  0  0  0  0  0  0  0
    7.3301   -1.2500    0.0000 O   0  0  0  0  0  0  0  0  0  0  0  0
   11.6603    1.2500    0.0000 O   0  0  0  0  0  0  0  0  0  0  0  0
    9.6602    1.2500    0.0000 O   0  0  0  0  0  0  0  0  0  0  0  0
    6.3301    4.7500    0.0000 N   0  0  0  0  0  0  0  0  0  0  0  0
   10.6603   -4.7500    0.0000 N   0  0  0  0  0  0  0  0  0  0  0  0
    4.5981    1.7500    0.0000 N   0  0  0  0  0  0  0  0  0  0  0  0
   12.3923   -1.7500    0.0000 N   0  0  0  0  0  0  0  0  0  0  0  0
    5.4641    3.2500    0.0000 N   0  0  0  0  0  0  0  0  0  0  0  0
   11.5263   -3.2500    0.0000 N   0  0  0  0  0  0  0  0  0  0  0  0
    4.5981    4.7500    0.0000 N   0  0  0  0  0  0  0  0  0  0  0  0
   12.3923   -4.7500    0.0000 N   0  0  0  0  0  0  0  0  0  0  0  0
    3.7320    3.2500    0.0000 N   0  0  0  0  0  0  0  0  0  0  0  0
   13.2583   -3.2500    0.0000 N   0  0  0  0  0  0  0  0  0  0  0  0
    2.8660    4.7500    0.0000 N   0  0  0  0  0  0  0  0  0  0  0  0
   14.1244   -4.7500    0.0000 N   0  0  0  0  0  0  0  0  0  0  0  0
    6.3301    5.7500    0.0000 C   0  0  0  0  0  0  0  0  0  0  0  0
    7.1962    4.2500    0.0000 C   0  0  0  0  0  0  0  0  0  0  0  0
   10.6603   -5.7500    0.0000 C   0  0  0  0  0  0  0  0  0  0  0  0
    9.7942   -4.2500    0.0000 C   0  0  0  0  0  0  0  0  0  0  0  0
    7.1962    0.2500    0.0000 C   0  0  0  0  0  0  0  0  0  0  0  0
    9.7942   -0.2500    0.0000 C   0  0  0  0  0  0  0  0  0  0  0  0
    6.3301   -0.2500    0.0000 C   0  0  0  0  0  0  0  0  0  0  0  0
   10.6603    0.2500    0.0000 C   0  0  0  0  0  0  0  0  0  0  0  0
    5.4641    4.2500    0.0000 C   0  0  0  0  0  0  0  0  0  0  0  0
   11.5263   -4.2500    0.0000 C   0  0  0  0  0  0  0  0  0  0  0  0
    5.4641    1.2500    0.0000 C   0  0  0  0  0  0  0  0  0  0  0  0
   11.5263   -1.2500    0.0000 C   0  0  0  0  0  0  0  0  0  0  0  0
    5.4641    0.2500    0.0000 C   0  0  0  0  0  0  0  0  0  0  0  0
   11.5263   -0.2500    0.0000 C   0  0  0  0  0  0  0  0  0  0  0  0
    8.0622   -0.2500    0.0000 C   0  0  0  0  0  0  0  0  0  0  0  0
    8.9282    0.2500    0.0000 C   0  0  0  0  0  0  0  0  0  0  0  0
    7.1962    6.2500    0.0000 C   0  0  0  0  0  0  0  0  0  0  0  0
    8.0622    4.7500    0.0000 C   0  0  0  0  0  0  0  0  0  0  0  0
    9.7942   -6.2500    0.0000 C   0  0  0  0  0  0  0  0  0  0  0  0
    8.9282   -4.7500    0.0000 C   0  0  0  0  0  0  0  0  0  0  0  0
    7.1962    1.2500    0.0000 C   0  0  0  0  0  0  0  0  0  0  0  0
    9.7942   -1.2500    0.0000 C   0  0  0  0  0  0  0  0  0  0  0  0
    6.3301    1.7500    0.0000 C   0  0  0  0  0  0  0  0  0  0  0  0
   10.6603   -1.7500    0.0000 C   0  0  0  0  0  0  0  0  0  0  0  0
    4.5981    2.7500    0.0000 C   0  0  0  0  0  0  0  0  0  0  0  0
   12.3923   -2.7500    0.0000 C   0  0  0  0  0  0  0  0  0  0  0  0
    3.7320    4.2500    0.0000 C   0  0  0  0  0  0  0  0  0  0  0  0
   13.2583   -4.2500    0.0000 C   0  0  0  0  0  0  0  0  0  0  0  0
    2.8660    5.7500    0.0000 C   0  0  0  0  0  0  0  0  0  0  0  0
   14.1244   -5.7500    0.0000 C   0  0  0  0  0  0  0  0  0  0  0  0
    3.7320    6.2500    0.0000 C   0  0  0  0  0  0  0  0  0  0  0  0
   13.2583   -6.2500    0.0000 C   0  0  0  0  0  0  0  0  0  0  0  0
    2.0000    6.2500    0.0000 C   0  0  0  0  0  0  0  0  0  0  0  0
   14.9904   -6.2500    0.0000 C   0  0  0  0  0  0  0  0  0  0  0  0
    3.7320    7.2500    0.0000 C   0  0  0  0  0  0  0  0  0  0  0  0
   13.2583   -7.2500    0.0000 C   0  0  0  0  0  0  0  0  0  0  0  0
    2.0000    7.2500    0.0000 C   0  0  0  0  0  0  0  0  0  0  0  0
   14.9904   -7.2500    0.0000 C   0  0  0  0  0  0  0  0  0  0  0  0
    2.8660    7.7500    0.0000 C   0  0  0  0  0  0  0  0  0  0  0  0
   14.1244   -7.7500    0.0000 C   0  0  0  0  0  0  0  0  0  0  0  0
    6.1181    6.3326    0.0000 H   0  0  0  0  0  0  0  0  0  0  0  0
    5.7196    5.6423    0.0000 H   0  0  0  0  0  0  0  0  0  0  0  0
    6.7976    3.7750    0.0000 H   0  0  0  0  0  0  0  0  0  0  0  0
    7.5947    3.7750    0.0000 H   0  0  0  0  0  0  0  0  0  0  0  0
   10.8723   -6.3326    0.0000 H   0  0  0  0  0  0  0  0  0  0  0  0
   11.2708   -5.6423    0.0000 H   0  0  0  0  0  0  0  0  0  0  0  0
   10.1928   -3.7750    0.0000 H   0  0  0  0  0  0  0  0  0  0  0  0
    9.3957   -3.7750    0.0000 H   0  0  0  0  0  0  0  0  0  0  0  0
    4.9272   -0.0600    0.0000 H   0  0  0  0  0  0  0  0  0  0  0  0
   12.0632    0.0600    0.0000 H   0  0  0  0  0  0  0  0  0  0  0  0
    8.0622   -0.8700    0.0000 H   0  0  0  0  0  0  0  0  0  0  0  0
    8.9282    0.8700    0.0000 H   0  0  0  0  0  0  0  0  0  0  0  0
    7.4082    5.6674    0.0000 H   0  0  0  0  0  0  0  0  0  0  0  0
    7.8067    6.3577    0.0000 H   0  0  0  0  0  0  0  0  0  0  0  0
    8.4607    5.2250    0.0000 H   0  0  0  0  0  0  0  0  0  0  0  0
    7.6636    5.2250    0.0000 H   0  0  0  0  0  0  0  0  0  0  0  0
    9.5822   -5.6674    0.0000 H   0  0  0  0  0  0  0  0  0  0  0  0
    9.1836   -6.3577    0.0000 H   0  0  0  0  0  0  0  0  0  0  0  0
    8.5297   -5.2250    0.0000 H   0  0  0  0  0  0  0  0  0  0  0  0
    9.3267   -5.2250    0.0000 H   0  0  0  0  0  0  0  0  0  0  0  0
    7.7331    1.5600    0.0000 H   0  0  0  0  0  0  0  0  0  0  0  0
    9.2573   -1.5600    0.0000 H   0  0  0  0  0  0  0  0  0  0  0  0
    6.3301    2.3700    0.0000 H   0  0  0  0  0  0  0  0  0  0  0  0
   10.6603   -2.3700    0.0000 H   0  0  0  0  0  0  0  0  0  0  0  0
    4.0611    1.4400    0.0000 H   0  0  0  0  0  0  0  0  0  0  0  0
   12.9292   -1.4400    0.0000 H   0  0  0  0  0  0  0  0  0  0  0  0
    2.3291    4.4400    0.0000 H   0  0  0  0  0  0  0  0  0  0  0  0
   14.6613   -4.4400    0.0000 H   0  0  0  0  0  0  0  0  0  0  0  0
    7.7331    7.5600    0.0000 H   0  0  0  0  0  0  0  0  0  0  0  0
    9.4651    4.5600    0.0000 H   0  0  0  0  0  0  0  0  0  0  0  0
    9.2573   -7.5600    0.0000 H   0  0  0  0  0  0  0  0  0  0  0  0
    7.5252   -4.5600    0.0000 H   0  0  0  0  0  0  0  0  0  0  0  0
    4.2690    5.9400    0.0000 H   0  0  0  0  0  0  0  0  0  0  0  0
   12.7214   -5.9400    0.0000 H   0  0  0  0  0  0  0  0  0  0  0  0
    1.4631    5.9400    0.0000 H   0  0  0  0  0  0  0  0  0  0  0  0
   15.5273   -5.9400    0.0000 H   0  0  0  0  0  0  0  0  0  0  0  0
    4.2690    7.5600    0.0000 H   0  0  0  0  0  0  0  0  0  0  0  0
   12.7214   -7.5600    0.0000 H   0  0  0  0  0  0  0  0  0  0  0  0
    1.4631    7.5600    0.0000 H   0  0  0  0  0  0  0  0  0  0  0  0
   15.5273   -7.5600    0.0000 H   0  0  0  0  0  0  0  0  0  0  0  0
    2.8660    8.3700    0.0000 H   0  0  0  0  0  0  0  0  0  0  0  0
   14.1244   -8.3700    0.0000 H   0  0  0  0  0  0  0  0  0  0  0  0
  1  9  1  0  0  0  0
  1 11  2  0  0  0  0
  1 12  2  0  0  0  0
  1 33  1  0  0  0  0
  2 10  1  0  0  0  0
  2 13  2  0  0  0  0
  2 14  2  0  0  0  0
  2 34  1  0  0  0  0
  5 43  1  0  0  0  0
  5 95  1  0  0  0  0
  6 44  1  0  0  0  0
  6 96  1  0  0  0  0
  7 45  1  0  0  0  0
  7 97  1  0  0  0  0
  8 46  1  0  0  0  0
  8 98  1  0  0  0  0
 15 27  1  0  0  0  0
 15 28  1  0  0  0  0
 15 35  1  0  0  0  0
 16 29  1  0  0  0  0
 16 30  1  0  0  0  0
 16 36  1  0  0  0  0
 17 37  1  0  0  0  0
 17 51  1  0  0  0  0
 17 91  1  0  0  0  0
 18 38  1  0  0  0  0
 18 52  1  0  0  0  0
 18 92  1  0  0  0  0
 19 35  1  0  0  0  0
 19 51  2  0  0  0  0
 20 36  1  0  0  0  0
 20 52  2  0  0  0  0
 21 35  2  0  0  0  0
 21 53  1  0  0  0  0
 22 36  2  0  0  0  0
 22 54  1  0  0  0  0
 23 51  1  0  0  0  0
 23 53  2  0  0  0  0
 24 52  1  0  0  0  0
 24 54  2  0  0  0  0
 25 53  1  0  0  0  0
 25 55  1  0  0  0  0
 25 93  1  0  0  0  0
 26 54  1  0  0  0  0
 26 56  1  0  0  0  0
 26 94  1  0  0  0  0
 27 43  1  0  0  0  0
 27 67  1  0  0  0  0
 27 68  1  0  0  0  0
 28 44  1  0  0  0  0
 28 69  1  0  0  0  0
 28 70  1  0  0  0  0
 29 45  1  0  0  0  0
 29 71  1  0  0  0  0
 29 72  1  0  0  0  0
 30 46  1  0  0  0  0
 30 73  1  0  0  0  0
 30 74  1  0  0  0  0
 31 33  2  0  0  0  0
 31 41  1  0  0  0  0
 31 47  1  0  0  0  0
 32 34  2  0  0  0  0
 32 42  1  0  0  0  0
 32 48  1  0  0  0  0
 33 39  1  0  0  0  0
 34 40  1  0  0  0  0
 37 39  2  0  0  0  0
 37 49  1  0  0  0  0
 38 40  2  0  0  0  0
 38 50  1  0  0  0  0
 39 75  1  0  0  0  0
 40 76  1  0  0  0  0
 41 42  2  0  0  0  0
 41 77  1  0  0  0  0
 42 78  1  0  0  0  0
 43 79  1  0  0  0  0
 43 80  1  0  0  0  0
 44 81  1  0  0  0  0
 44 82  1  0  0  0  0
 45 83  1  0  0  0  0
 45 84  1  0  0  0  0
 46 85  1  0  0  0  0
 46 86  1  0  0  0  0
 47 49  2  0  0  0  0
 47 87  1  0  0  0  0
 48 50  2  0  0  0  0
 48 88  1  0  0  0  0
 49 89  1  0  0  0  0
 50 90  1  0  0  0  0
 55 57  2  0  0  0  0
 55 59  1  0  0  0  0
 56 58  2  0  0  0  0
 56 60  1  0  0  0  0
 57 61  1  0  0  0  0
 57 99  1  0  0  0  0
 58 62  1  0  0  0  0
 58100  1  0  0  0  0
 59 63  2  0  0  0  0
 59101  1  0  0  0  0
 60 64  2  0  0  0  0
 60102  1  0  0  0  0
 61 65  2  0  0  0  0
 61103  1  0  0  0  0
 62 66  2  0  0  0  0
 62104  1  0  0  0  0
 63 65  1  0  0  0  0
 63105  1  0  0  0  0
 64 66  1  0  0  0  0
 64106  1  0  0  0  0
 65107  1  0  0  0  0
 66108  1  0  0  0  0
M  CHG  4   3   1   4   1   9  -1  10  -1
M  END
> <PUBCHEM_COMPOUND_CID>
6434593

> <PUBCHEM_COMPOUND_CANONICALIZED>
1

> <PUBCHEM_CACTVS_COMPLEXITY>
1470

> <PUBCHEM_CACTVS_HBOND_ACCEPTOR>
22

> <PUBCHEM_CACTVS_HBOND_DONOR>
8

> <PUBCHEM_CACTVS_ROTATABLE_BOND>
20

> <PUBCHEM_CACTVS_SUBSKEYS>
AAADcfB//DBgAAAAAAAAAAAAAAAAAAAAAAA8eMGCAAAAAAAB9AAAHgQQCAAADAjh2AYx0YfIEgKgAiRCZHDCAEkhAoAJiBgIZIiKOCLAmZGEIAxokALYyCcQgAAOCAAAACAEAAAQAAAAQAgAAAAAAAAAAA==

> <PUBCHEM_IUPAC_OPENEYE_NAME>
disodium;5-[[4-anilino-6-[bis(2-hydroxyethyl)amino]-1,3,5-triazin-2-yl]amino]-2-[(E)-2-[4-[[4-anilino-6-[bis(2-hydroxyethyl)amino]-1,3,5-triazin-2-yl]amino]-2-sulfonato-phenyl]vinyl]benzenesulfonate

> <PUBCHEM_IUPAC_CAS_NAME>
disodium;5-[[4-anilino-6-[bis(2-hydroxyethyl)amino]-1,3,5-triazin-2-yl]amino]-2-[(E)-2-[4-[[4-anilino-6-[bis(2-hydroxyethyl)amino]-1,3,5-triazin-2-yl]amino]-2-sulfonatophenyl]ethenyl]benzenesulfonate

> <PUBCHEM_IUPAC_NAME_MARKUP>
disodium;5-[[4-anilino-6-[bis(2-hydroxyethyl)amino]-1,3,5-triazin-2-yl]amino]-2-[(<I>E</I>)-2-[4-[[4-anilino-6-[bis(2-hydroxyethyl)amino]-1,3,5-triazin-2-yl]amino]-2-sulfonatophenyl]ethenyl]benzenesulfonate

> <PUBCHEM_IUPAC_NAME>
disodium;5-[[4-anilino-6-[bis(2-hydroxyethyl)amino]-1,3,5-triazin-2-yl]amino]-2-[(E)-2-[4-[[4-anilino-6-[bis(2-hydroxyethyl)amino]-1,3,5-triazin-2-yl]amino]-2-sulfonatophenyl]ethenyl]benzenesulfonate

> <PUBCHEM_IUPAC_SYSTEMATIC_NAME>
disodium;5-[[4-[bis(2-hydroxyethyl)amino]-6-phenylazanyl-1,3,5-triazin-2-yl]amino]-2-[(E)-2-[4-[[4-[bis(2-hydroxyethyl)amino]-6-phenylazanyl-1,3,5-triazin-2-yl]amino]-2-sulfonato-phenyl]ethenyl]benzenesulfonate

> <PUBCHEM_IUPAC_TRADITIONAL_NAME>
disodium;5-[[4-anilino-6-[bis(2-hydroxyethyl)amino]-s-triazin-2-yl]amino]-2-[(E)-2-[4-[[4-anilino-6-[bis(2-hydroxyethyl)amino]-s-triazin-2-yl]amino]-2-sulfonato-phenyl]vinyl]besylate

> <PUBCHEM_IUPAC_INCHI>
InChI=1S/C40H44N12O10S2.2Na/c53-21-17-51(18-22-54)39-47-35(41-29-7-3-1-4-8-29)45-37(49-39)43-31-15-13-27(33(25-31)63(57,58)59)11-12-28-14-16-32(26-34(28)64(60,61)62)44-38-46-36(42-30-9-5-2-6-10-30)48-40(50-38)52(19-23-55)20-24-56;;/h1-16,25-26,53-56H,17-24H2,(H,57,58,59)(H,60,61,62)(H2,41,43,45,47,49)(H2,42,44,46,48,50);;/q;2*+1/p-2/b12-11+;;

> <PUBCHEM_IUPAC_INCHIKEY>
YJHDFAAFYNRKQE-YHPRVSEPSA-L

> <PUBCHEM_EXACT_MASS>
960.23836649

> <PUBCHEM_MOLECULAR_FORMULA>
C40H42N12Na2O10S2

> <PUBCHEM_MOLECULAR_WEIGHT>
960.9

> <PUBCHEM_SMILES>
C1=CC=C(C=C1)NC2=NC(=NC(=N2)N(CCO)CCO)NC3=CC(=C(C=C3)/C=C/C4=C(C=C(C=C4)NC5=NC(=NC(=N5)NC6=CC=CC=C6)N(CCO)CCO)S(=O)(=O)[O-])S(=O)(=O)[O-].[Na+].[Na+]

> <PUBCHEM_OPENEYE_CAN_SMILES>
C1=CC=C(C=C1)NC2=NC(=NC(=N2)N(CCO)CCO)NC3=CC(=C(C=C3)C=CC4=C(C=C(C=C4)NC5=NC(=NC(=N5)NC6=CC=CC=C6)N(CCO)CCO)S(=O)(=O)[O-])S(=O)(=O)[O-].[Na+].[Na+]

> <PUBCHEM_OPENEYE_ISO_SMILES>
C1=CC=C(C=C1)NC2=NC(=NC(=N2)N(CCO)CCO)NC3=CC(=C(C=C3)/C=C/C4=C(C=C(C=C4)NC5=NC(=NC(=N5)NC6=CC=CC=C6)N(CCO)CCO)S(=O)(=O)[O-])S(=O)(=O)[O-].[Na+].[Na+]

> <PUBCHEM_CACTVS_TPSA>
344

> <PUBCHEM_MONOISOTOPIC_WEIGHT>
960.23836649

> <PUBCHEM_TOTAL_CHARGE>
0

> <PUBCHEM_HEAVY_ATOM_COUNT>
66

> <PUBCHEM_ATOM_DEF_STEREO_COUNT>
0

> <PUBCHEM_ATOM_UDEF_STEREO_COUNT>
0

> <PUBCHEM_BOND_DEF_STEREO_COUNT>
1

> <PUBCHEM_BOND_UDEF_STEREO_COUNT>
0

> <PUBCHEM_ISOTOPIC_ATOM_COUNT>
0

> <PUBCHEM_COMPONENT_COUNT>
3

> <PUBCHEM_CACTVS_TAUTO_COUNT>
-1

> <PUBCHEM_COORDINATE_TYPE>
1
5
255

> <PUBCHEM_BONDANNOTATIONS>
19  35  8
19  51  8
20  36  8
20  52  8
21  35  8
21  53  8
22  36  8
22  54  8
23  51  8
23  53  8
24  52  8
24  54  8
31  33  8
31  47  8
32  34  8
32  48  8
33  39  8
34  40  8
37  39  8
37  49  8
38  40  8
38  50  8
47  49  8
48  50  8
55  57  8
55  59  8
56  58  8
56  60  8
57  61  8
58  62  8
59  63  8
60  64  8
61  65  8
62  66  8
63  65  8
64  66  8

$$$$
