6436363
  -OEChem-04042506012D

121120  0     0  0  0  0  0  0999 V2000
   16.7224   -3.7500    0.0000 O   0  0  0  0  0  0  0  0  0  0  0  0
   17.5885   -2.2500    0.0000 N   0  0  0  0  0  0  0  0  0  0  0  0
   25.3827   -2.7500    0.0000 C   0  0  0  0  0  0  0  0  0  0  0  0
   24.5167   -2.2500    0.0000 C   0  0  0  0  0  0  0  0  0  0  0  0
   26.2487   -2.2500    0.0000 C   0  0  0  0  0  0  0  0  0  0  0  0
   23.6506   -2.7500    0.0000 C   0  0  0  0  0  0  0  0  0  0  0  0
   27.1147   -2.7500    0.0000 C   0  0  0  0  0  0  0  0  0  0  0  0
   22.7846   -2.2500    0.0000 C   0  0  0  0  0  0  0  0  0  0  0  0
   27.9808   -2.2500    0.0000 C   0  0  0  0  0  0  0  0  0  0  0  0
   21.9186   -2.7500    0.0000 C   0  0  0  0  0  0  0  0  0  0  0  0
   28.8468   -2.7500    0.0000 C   0  0  0  0  0  0  0  0  0  0  0  0
   21.0526   -2.2500    0.0000 C   0  0  0  0  0  0  0  0  0  0  0  0
   29.7128   -2.2500    0.0000 C   0  0  0  0  0  0  0  0  0  0  0  0
   20.1865   -2.7500    0.0000 C   0  0  0  0  0  0  0  0  0  0  0  0
   11.5263   -2.7500    0.0000 C   0  0  0  0  0  0  0  0  0  0  0  0
   12.3923   -2.2500    0.0000 C   0  0  0  0  0  0  0  0  0  0  0  0
   10.6603   -2.2500    0.0000 C   0  0  0  0  0  0  0  0  0  0  0  0
   13.2583   -2.7500    0.0000 C   0  0  0  0  0  0  0  0  0  0  0  0
   30.5788   -2.7500    0.0000 C   0  0  0  0  0  0  0  0  0  0  0  0
    9.7942   -2.7500    0.0000 C   0  0  0  0  0  0  0  0  0  0  0  0
   19.3205   -2.2500    0.0000 C   0  0  0  0  0  0  0  0  0  0  0  0
   14.1244   -2.2500    0.0000 C   0  0  0  0  0  0  0  0  0  0  0  0
    8.9282   -2.2500    0.0000 C   0  0  0  0  0  0  0  0  0  0  0  0
   14.9904   -2.7500    0.0000 C   0  0  0  0  0  0  0  0  0  0  0  0
   31.4449   -2.2500    0.0000 C   0  0  0  0  0  0  0  0  0  0  0  0
   18.4545   -2.7500    0.0000 C   0  0  0  0  0  0  0  0  0  0  0  0
    8.0622   -2.7500    0.0000 C   0  0  0  0  0  0  0  0  0  0  0  0
   15.8564   -2.2500    0.0000 C   0  0  0  0  0  0  0  0  0  0  0  0
   32.3109   -2.7500    0.0000 C   0  0  0  0  0  0  0  0  0  0  0  0
    7.1962   -2.2500    0.0000 C   0  0  0  0  0  0  0  0  0  0  0  0
   16.7224   -2.7500    0.0000 C   0  0  0  0  0  0  0  0  0  0  0  0
    4.5981    0.2500    0.0000 C   0  0  0  0  0  0  0  0  0  0  0  0
    3.7320    0.7500    0.0000 C   0  0  0  0  0  0  0  0  0  0  0  0
    4.5981   -0.7500    0.0000 C   0  0  0  0  0  0  0  0  0  0  0  0
    3.7320    1.7500    0.0000 C   0  0  0  0  0  0  0  0  0  0  0  0
    5.4641   -1.2500    0.0000 C   0  0  0  0  0  0  0  0  0  0  0  0
    6.3301   -2.7500    0.0000 C   0  0  0  0  0  0  0  0  0  0  0  0
    2.8660    2.2500    0.0000 C   0  0  0  0  0  0  0  0  0  0  0  0
   33.1769   -2.2500    0.0000 C   0  0  0  0  0  0  0  0  0  0  0  0
    5.4641   -2.2500    0.0000 C   0  0  0  0  0  0  0  0  0  0  0  0
    2.8660    3.2500    0.0000 C   0  0  0  0  0  0  0  0  0  0  0  0
    2.0000    3.7500    0.0000 C   0  0  0  0  0  0  0  0  0  0  0  0
   24.9842   -3.2250    0.0000 H   0  0  0  0  0  0  0  0  0  0  0  0
   25.7812   -3.2250    0.0000 H   0  0  0  0  0  0  0  0  0  0  0  0
   24.9152   -1.7750    0.0000 H   0  0  0  0  0  0  0  0  0  0  0  0
   24.1181   -1.7750    0.0000 H   0  0  0  0  0  0  0  0  0  0  0  0
   26.6472   -1.7750    0.0000 H   0  0  0  0  0  0  0  0  0  0  0  0
   25.8502   -1.7750    0.0000 H   0  0  0  0  0  0  0  0  0  0  0  0
   23.2521   -3.2250    0.0000 H   0  0  0  0  0  0  0  0  0  0  0  0
   24.0492   -3.2250    0.0000 H   0  0  0  0  0  0  0  0  0  0  0  0
   26.7162   -3.2250    0.0000 H   0  0  0  0  0  0  0  0  0  0  0  0
   27.5133   -3.2250    0.0000 H   0  0  0  0  0  0  0  0  0  0  0  0
   23.1831   -1.7750    0.0000 H   0  0  0  0  0  0  0  0  0  0  0  0
   22.3861   -1.7750    0.0000 H   0  0  0  0  0  0  0  0  0  0  0  0
   28.3793   -1.7750    0.0000 H   0  0  0  0  0  0  0  0  0  0  0  0
   27.5822   -1.7750    0.0000 H   0  0  0  0  0  0  0  0  0  0  0  0
   21.5201   -3.2250    0.0000 H   0  0  0  0  0  0  0  0  0  0  0  0
   22.3171   -3.2250    0.0000 H   0  0  0  0  0  0  0  0  0  0  0  0
   28.4483   -3.2250    0.0000 H   0  0  0  0  0  0  0  0  0  0  0  0
   29.2453   -3.2250    0.0000 H   0  0  0  0  0  0  0  0  0  0  0  0
   21.4511   -1.7750    0.0000 H   0  0  0  0  0  0  0  0  0  0  0  0
   20.6540   -1.7750    0.0000 H   0  0  0  0  0  0  0  0  0  0  0  0
   30.1113   -1.7750    0.0000 H   0  0  0  0  0  0  0  0  0  0  0  0
   29.3143   -1.7750    0.0000 H   0  0  0  0  0  0  0  0  0  0  0  0
   19.7880   -3.2250    0.0000 H   0  0  0  0  0  0  0  0  0  0  0  0
   20.5851   -3.2250    0.0000 H   0  0  0  0  0  0  0  0  0  0  0  0
   11.1278   -3.2250    0.0000 H   0  0  0  0  0  0  0  0  0  0  0  0
   11.9248   -3.2250    0.0000 H   0  0  0  0  0  0  0  0  0  0  0  0
   12.7908   -1.7750    0.0000 H   0  0  0  0  0  0  0  0  0  0  0  0
   11.9938   -1.7750    0.0000 H   0  0  0  0  0  0  0  0  0  0  0  0
   11.0588   -1.7750    0.0000 H   0  0  0  0  0  0  0  0  0  0  0  0
   10.2617   -1.7750    0.0000 H   0  0  0  0  0  0  0  0  0  0  0  0
   12.8598   -3.2250    0.0000 H   0  0  0  0  0  0  0  0  0  0  0  0
   13.6569   -3.2250    0.0000 H   0  0  0  0  0  0  0  0  0  0  0  0
   30.1803   -3.2250    0.0000 H   0  0  0  0  0  0  0  0  0  0  0  0
   30.9774   -3.2250    0.0000 H   0  0  0  0  0  0  0  0  0  0  0  0
    9.3957   -3.2250    0.0000 H   0  0  0  0  0  0  0  0  0  0  0  0
   10.1928   -3.2250    0.0000 H   0  0  0  0  0  0  0  0  0  0  0  0
   19.7190   -1.7750    0.0000 H   0  0  0  0  0  0  0  0  0  0  0  0
   18.9220   -1.7750    0.0000 H   0  0  0  0  0  0  0  0  0  0  0  0
   14.5229   -1.7750    0.0000 H   0  0  0  0  0  0  0  0  0  0  0  0
   13.7258   -1.7750    0.0000 H   0  0  0  0  0  0  0  0  0  0  0  0
    9.3267   -1.7750    0.0000 H   0  0  0  0  0  0  0  0  0  0  0  0
    8.5297   -1.7750    0.0000 H   0  0  0  0  0  0  0  0  0  0  0  0
   14.5919   -3.2250    0.0000 H   0  0  0  0  0  0  0  0  0  0  0  0
   15.3889   -3.2250    0.0000 H   0  0  0  0  0  0  0  0  0  0  0  0
   31.8434   -1.7750    0.0000 H   0  0  0  0  0  0  0  0  0  0  0  0
   31.0463   -1.7750    0.0000 H   0  0  0  0  0  0  0  0  0  0  0  0
   18.0560   -3.2250    0.0000 H   0  0  0  0  0  0  0  0  0  0  0  0
   18.8530   -3.2250    0.0000 H   0  0  0  0  0  0  0  0  0  0  0  0
    7.6636   -3.2250    0.0000 H   0  0  0  0  0  0  0  0  0  0  0  0
    8.4607   -3.2250    0.0000 H   0  0  0  0  0  0  0  0  0  0  0  0
   16.2549   -1.7750    0.0000 H   0  0  0  0  0  0  0  0  0  0  0  0
   15.4579   -1.7750    0.0000 H   0  0  0  0  0  0  0  0  0  0  0  0
   31.9124   -3.2250    0.0000 H   0  0  0  0  0  0  0  0  0  0  0  0
   32.7094   -3.2250    0.0000 H   0  0  0  0  0  0  0  0  0  0  0  0
    7.5947   -1.7750    0.0000 H   0  0  0  0  0  0  0  0  0  0  0  0
    6.7976   -1.7750    0.0000 H   0  0  0  0  0  0  0  0  0  0  0  0
   17.5885   -1.6300    0.0000 H   0  0  0  0  0  0  0  0  0  0  0  0
    5.2087    0.1423    0.0000 H   0  0  0  0  0  0  0  0  0  0  0  0
    4.8101    0.8326    0.0000 H   0  0  0  0  0  0  0  0  0  0  0  0
    3.1215    0.8577    0.0000 H   0  0  0  0  0  0  0  0  0  0  0  0
    3.5200    0.1674    0.0000 H   0  0  0  0  0  0  0  0  0  0  0  0
    3.9875   -0.6423    0.0000 H   0  0  0  0  0  0  0  0  0  0  0  0
    4.3860   -1.3326    0.0000 H   0  0  0  0  0  0  0  0  0  0  0  0
    4.3426    1.6423    0.0000 H   0  0  0  0  0  0  0  0  0  0  0  0
    3.9441    2.3326    0.0000 H   0  0  0  0  0  0  0  0  0  0  0  0
    6.0747   -1.3577    0.0000 H   0  0  0  0  0  0  0  0  0  0  0  0
    5.6762   -0.6674    0.0000 H   0  0  0  0  0  0  0  0  0  0  0  0
    6.3301   -3.3700    0.0000 H   0  0  0  0  0  0  0  0  0  0  0  0
    2.2554    2.3577    0.0000 H   0  0  0  0  0  0  0  0  0  0  0  0
    2.6540    1.6674    0.0000 H   0  0  0  0  0  0  0  0  0  0  0  0
   33.4869   -2.7869    0.0000 H   0  0  0  0  0  0  0  0  0  0  0  0
   33.7138   -1.9400    0.0000 H   0  0  0  0  0  0  0  0  0  0  0  0
   32.8669   -1.7131    0.0000 H   0  0  0  0  0  0  0  0  0  0  0  0
    4.9272   -2.5600    0.0000 H   0  0  0  0  0  0  0  0  0  0  0  0
    3.4766    3.1423    0.0000 H   0  0  0  0  0  0  0  0  0  0  0  0
    3.0781    3.8326    0.0000 H   0  0  0  0  0  0  0  0  0  0  0  0
    2.3100    4.2869    0.0000 H   0  0  0  0  0  0  0  0  0  0  0  0
    1.4631    4.0600    0.0000 H   0  0  0  0  0  0  0  0  0  0  0  0
    1.6900    3.2131    0.0000 H   0  0  0  0  0  0  0  0  0  0  0  0
  1 31  2  0  0  0  0
  2 26  1  0  0  0  0
  2 31  1  0  0  0  0
  2 99  1  0  0  0  0
  3  4  1  0  0  0  0
  3  5  1  0  0  0  0
  3 43  1  0  0  0  0
  3 44  1  0  0  0  0
  4  6  1  0  0  0  0
  4 45  1  0  0  0  0
  4 46  1  0  0  0  0
  5  7  1  0  0  0  0
  5 47  1  0  0  0  0
  5 48  1  0  0  0  0
  6  8  1  0  0  0  0
  6 49  1  0  0  0  0
  6 50  1  0  0  0  0
  7  9  1  0  0  0  0
  7 51  1  0  0  0  0
  7 52  1  0  0  0  0
  8 10  1  0  0  0  0
  8 53  1  0  0  0  0
  8 54  1  0  0  0  0
  9 11  1  0  0  0  0
  9 55  1  0  0  0  0
  9 56  1  0  0  0  0
 10 12  1  0  0  0  0
 10 57  1  0  0  0  0
 10 58  1  0  0  0  0
 11 13  1  0  0  0  0
 11 59  1  0  0  0  0
 11 60  1  0  0  0  0
 12 14  1  0  0  0  0
 12 61  1  0  0  0  0
 12 62  1  0  0  0  0
 13 19  1  0  0  0  0
 13 63  1  0  0  0  0
 13 64  1  0  0  0  0
 14 21  1  0  0  0  0
 14 65  1  0  0  0  0
 14 66  1  0  0  0  0
 15 16  1  0  0  0  0
 15 17  1  0  0  0  0
 15 67  1  0  0  0  0
 15 68  1  0  0  0  0
 16 18  1  0  0  0  0
 16 69  1  0  0  0  0
 16 70  1  0  0  0  0
 17 20  1  0  0  0  0
 17 71  1  0  0  0  0
 17 72  1  0  0  0  0
 18 22  1  0  0  0  0
 18 73  1  0  0  0  0
 18 74  1  0  0  0  0
 19 25  1  0  0  0  0
 19 75  1  0  0  0  0
 19 76  1  0  0  0  0
 20 23  1  0  0  0  0
 20 77  1  0  0  0  0
 20 78  1  0  0  0  0
 21 26  1  0  0  0  0
 21 79  1  0  0  0  0
 21 80  1  0  0  0  0
 22 24  1  0  0  0  0
 22 81  1  0  0  0  0
 22 82  1  0  0  0  0
 23 27  1  0  0  0  0
 23 83  1  0  0  0  0
 23 84  1  0  0  0  0
 24 28  1  0  0  0  0
 24 85  1  0  0  0  0
 24 86  1  0  0  0  0
 25 29  1  0  0  0  0
 25 87  1  0  0  0  0
 25 88  1  0  0  0  0
 26 89  1  0  0  0  0
 26 90  1  0  0  0  0
 27 30  1  0  0  0  0
 27 91  1  0  0  0  0
 27 92  1  0  0  0  0
 28 31  1  0  0  0  0
 28 93  1  0  0  0  0
 28 94  1  0  0  0  0
 29 39  1  0  0  0  0
 29 95  1  0  0  0  0
 29 96  1  0  0  0  0
 30 37  1  0  0  0  0
 30 97  1  0  0  0  0
 30 98  1  0  0  0  0
 32 33  1  0  0  0  0
 32 34  1  0  0  0  0
 32100  1  0  0  0  0
 32101  1  0  0  0  0
 33 35  1  0  0  0  0
 33102  1  0  0  0  0
 33103  1  0  0  0  0
 34 36  1  0  0  0  0
 34104  1  0  0  0  0
 34105  1  0  0  0  0
 35 38  1  0  0  0  0
 35106  1  0  0  0  0
 35107  1  0  0  0  0
 36 40  1  0  0  0  0
 36108  1  0  0  0  0
 36109  1  0  0  0  0
 37 40  2  0  0  0  0
 37110  1  0  0  0  0
 38 41  1  0  0  0  0
 38111  1  0  0  0  0
 38112  1  0  0  0  0
 39113  1  0  0  0  0
 39114  1  0  0  0  0
 39115  1  0  0  0  0
 40116  1  0  0  0  0
 41 42  1  0  0  0  0
 41117  1  0  0  0  0
 41118  1  0  0  0  0
 42119  1  0  0  0  0
 42120  1  0  0  0  0
 42121  1  0  0  0  0
M  END
> <PUBCHEM_COMPOUND_CID>
6436363

> <PUBCHEM_COMPOUND_CANONICALIZED>
1

> <PUBCHEM_CACTVS_COMPLEXITY>
528

> <PUBCHEM_CACTVS_HBOND_ACCEPTOR>
1

> <PUBCHEM_CACTVS_HBOND_DONOR>
1

> <PUBCHEM_CACTVS_ROTATABLE_BOND>
36

> <PUBCHEM_CACTVS_SUBSKEYS>
AAADcfB+IAAAAAAAAAAAAAAAAAAAAAAAAAAAAAAAAAAAAAAAAAAAHgAQAAAACADBgAQCAALAAACIACFSEAAAAAAgAAAICIEIAAgAABIAgQAEAAAAlgCIAAMYiICAAAAAAAAAAAAAAAAAAAAAAAAAAAAAAA==

> <PUBCHEM_IUPAC_OPENEYE_NAME>
(Z)-N-octadecyldocos-13-enamide

> <PUBCHEM_IUPAC_CAS_NAME>
(Z)-N-octadecyl-13-docosenamide

> <PUBCHEM_IUPAC_NAME_MARKUP>
(<I>Z</I>)-<I>N</I>-octadecyldocos-13-enamide

> <PUBCHEM_IUPAC_NAME>
(Z)-N-octadecyldocos-13-enamide

> <PUBCHEM_IUPAC_SYSTEMATIC_NAME>
(Z)-N-octadecyldocos-13-enamide

> <PUBCHEM_IUPAC_TRADITIONAL_NAME>
(Z)-N-stearyldocos-13-enamide

> <PUBCHEM_IUPAC_INCHI>
InChI=1S/C40H79NO/c1-3-5-7-9-11-13-15-17-19-21-22-23-24-26-28-30-32-34-36-38-40(42)41-39-37-35-33-31-29-27-25-20-18-16-14-12-10-8-6-4-2/h17,19H,3-16,18,20-39H2,1-2H3,(H,41,42)/b19-17-

> <PUBCHEM_IUPAC_INCHIKEY>
FUSNPOOETKRESL-ZPHPHTNESA-N

> <PUBCHEM_XLOGP3_AA>
18

> <PUBCHEM_EXACT_MASS>
589.61616614

> <PUBCHEM_MOLECULAR_FORMULA>
C40H79NO

> <PUBCHEM_MOLECULAR_WEIGHT>
590.1

> <PUBCHEM_SMILES>
CCCCCCCCCCCCCCCCCCNC(=O)CCCCCCCCCCC/C=C\CCCCCCCC

> <PUBCHEM_OPENEYE_CAN_SMILES>
CCCCCCCCCCCCCCCCCCNC(=O)CCCCCCCCCCCC=CCCCCCCCC

> <PUBCHEM_OPENEYE_ISO_SMILES>
CCCCCCCCCCCCCCCCCCNC(=O)CCCCCCCCCCC/C=C\CCCCCCCC

> <PUBCHEM_CACTVS_TPSA>
29.1

> <PUBCHEM_MONOISOTOPIC_WEIGHT>
589.61616614

> <PUBCHEM_TOTAL_CHARGE>
0

> <PUBCHEM_HEAVY_ATOM_COUNT>
42

> <PUBCHEM_ATOM_DEF_STEREO_COUNT>
0

> <PUBCHEM_ATOM_UDEF_STEREO_COUNT>
0

> <PUBCHEM_BOND_DEF_STEREO_COUNT>
1

> <PUBCHEM_BOND_UDEF_STEREO_COUNT>
0

> <PUBCHEM_ISOTOPIC_ATOM_COUNT>
0

> <PUBCHEM_COMPONENT_COUNT>
1

> <PUBCHEM_CACTVS_TAUTO_COUNT>
-1

> <PUBCHEM_COORDINATE_TYPE>
1
5
255

$$$$
