6436436
  -OEChem-04042506012D

103102  0     0  0  0  0  0  0999 V2000
   14.9904   -3.7500    0.0000 O   0  0  0  0  0  0  0  0  0  0  0  0
   15.8564   -2.2500    0.0000 N   0  0  0  0  0  0  0  0  0  0  0  0
    8.9282   -2.2500    0.0000 C   0  0  0  0  0  0  0  0  0  0  0  0
    8.0622   -2.7500    0.0000 C   0  0  0  0  0  0  0  0  0  0  0  0
    9.7942   -2.7500    0.0000 C   0  0  0  0  0  0  0  0  0  0  0  0
    7.1962   -2.2500    0.0000 C   0  0  0  0  0  0  0  0  0  0  0  0
   10.6603   -2.2500    0.0000 C   0  0  0  0  0  0  0  0  0  0  0  0
    6.3301   -2.7500    0.0000 C   0  0  0  0  0  0  0  0  0  0  0  0
   11.5263   -2.7500    0.0000 C   0  0  0  0  0  0  0  0  0  0  0  0
    5.4641   -2.2500    0.0000 C   0  0  0  0  0  0  0  0  0  0  0  0
   12.3923   -2.2500    0.0000 C   0  0  0  0  0  0  0  0  0  0  0  0
    4.5981   -2.7500    0.0000 C   0  0  0  0  0  0  0  0  0  0  0  0
   13.2583   -2.7500    0.0000 C   0  0  0  0  0  0  0  0  0  0  0  0
    3.7320   -2.2500    0.0000 C   0  0  0  0  0  0  0  0  0  0  0  0
   19.3205   -2.2500    0.0000 C   0  0  0  0  0  0  0  0  0  0  0  0
   20.1865   -2.7500    0.0000 C   0  0  0  0  0  0  0  0  0  0  0  0
   18.4545   -2.7500    0.0000 C   0  0  0  0  0  0  0  0  0  0  0  0
   21.0526   -2.2500    0.0000 C   0  0  0  0  0  0  0  0  0  0  0  0
   14.1244   -2.2500    0.0000 C   0  0  0  0  0  0  0  0  0  0  0  0
   17.5885   -2.2500    0.0000 C   0  0  0  0  0  0  0  0  0  0  0  0
   21.9186   -2.7500    0.0000 C   0  0  0  0  0  0  0  0  0  0  0  0
   16.7224   -2.7500    0.0000 C   0  0  0  0  0  0  0  0  0  0  0  0
    2.8660   -2.7500    0.0000 C   0  0  0  0  0  0  0  0  0  0  0  0
   25.3827    0.2500    0.0000 C   0  0  0  0  0  0  0  0  0  0  0  0
   26.2487    0.7500    0.0000 C   0  0  0  0  0  0  0  0  0  0  0  0
   22.7846   -2.2500    0.0000 C   0  0  0  0  0  0  0  0  0  0  0  0
   14.9904   -2.7500    0.0000 C   0  0  0  0  0  0  0  0  0  0  0  0
   25.3827   -0.7500    0.0000 C   0  0  0  0  0  0  0  0  0  0  0  0
   26.2487    1.7500    0.0000 C   0  0  0  0  0  0  0  0  0  0  0  0
   24.5167   -1.2500    0.0000 C   0  0  0  0  0  0  0  0  0  0  0  0
   27.1147    2.2500    0.0000 C   0  0  0  0  0  0  0  0  0  0  0  0
   23.6506   -2.7500    0.0000 C   0  0  0  0  0  0  0  0  0  0  0  0
    2.0000   -2.2500    0.0000 C   0  0  0  0  0  0  0  0  0  0  0  0
   24.5167   -2.2500    0.0000 C   0  0  0  0  0  0  0  0  0  0  0  0
   27.1147    3.2500    0.0000 C   0  0  0  0  0  0  0  0  0  0  0  0
   27.9808    3.7500    0.0000 C   0  0  0  0  0  0  0  0  0  0  0  0
    9.3267   -1.7750    0.0000 H   0  0  0  0  0  0  0  0  0  0  0  0
    8.5297   -1.7750    0.0000 H   0  0  0  0  0  0  0  0  0  0  0  0
    7.6636   -3.2250    0.0000 H   0  0  0  0  0  0  0  0  0  0  0  0
    8.4607   -3.2250    0.0000 H   0  0  0  0  0  0  0  0  0  0  0  0
    9.3957   -3.2250    0.0000 H   0  0  0  0  0  0  0  0  0  0  0  0
   10.1928   -3.2250    0.0000 H   0  0  0  0  0  0  0  0  0  0  0  0
    7.5947   -1.7750    0.0000 H   0  0  0  0  0  0  0  0  0  0  0  0
    6.7976   -1.7750    0.0000 H   0  0  0  0  0  0  0  0  0  0  0  0
   11.0588   -1.7750    0.0000 H   0  0  0  0  0  0  0  0  0  0  0  0
   10.2617   -1.7750    0.0000 H   0  0  0  0  0  0  0  0  0  0  0  0
    5.9316   -3.2250    0.0000 H   0  0  0  0  0  0  0  0  0  0  0  0
    6.7287   -3.2250    0.0000 H   0  0  0  0  0  0  0  0  0  0  0  0
   11.1278   -3.2250    0.0000 H   0  0  0  0  0  0  0  0  0  0  0  0
   11.9248   -3.2250    0.0000 H   0  0  0  0  0  0  0  0  0  0  0  0
    5.8626   -1.7750    0.0000 H   0  0  0  0  0  0  0  0  0  0  0  0
    5.0656   -1.7750    0.0000 H   0  0  0  0  0  0  0  0  0  0  0  0
   12.7908   -1.7750    0.0000 H   0  0  0  0  0  0  0  0  0  0  0  0
   11.9938   -1.7750    0.0000 H   0  0  0  0  0  0  0  0  0  0  0  0
    4.1996   -3.2250    0.0000 H   0  0  0  0  0  0  0  0  0  0  0  0
    4.9966   -3.2250    0.0000 H   0  0  0  0  0  0  0  0  0  0  0  0
   12.8598   -3.2250    0.0000 H   0  0  0  0  0  0  0  0  0  0  0  0
   13.6569   -3.2250    0.0000 H   0  0  0  0  0  0  0  0  0  0  0  0
   19.7190   -1.7750    0.0000 H   0  0  0  0  0  0  0  0  0  0  0  0
   18.9220   -1.7750    0.0000 H   0  0  0  0  0  0  0  0  0  0  0  0
    4.1306   -1.7750    0.0000 H   0  0  0  0  0  0  0  0  0  0  0  0
    3.3335   -1.7750    0.0000 H   0  0  0  0  0  0  0  0  0  0  0  0
   19.7880   -3.2250    0.0000 H   0  0  0  0  0  0  0  0  0  0  0  0
   20.5851   -3.2250    0.0000 H   0  0  0  0  0  0  0  0  0  0  0  0
   18.0560   -3.2250    0.0000 H   0  0  0  0  0  0  0  0  0  0  0  0
   18.8530   -3.2250    0.0000 H   0  0  0  0  0  0  0  0  0  0  0  0
   21.4511   -1.7750    0.0000 H   0  0  0  0  0  0  0  0  0  0  0  0
   20.6540   -1.7750    0.0000 H   0  0  0  0  0  0  0  0  0  0  0  0
   14.5229   -1.7750    0.0000 H   0  0  0  0  0  0  0  0  0  0  0  0
   13.7258   -1.7750    0.0000 H   0  0  0  0  0  0  0  0  0  0  0  0
   17.9870   -1.7750    0.0000 H   0  0  0  0  0  0  0  0  0  0  0  0
   17.1899   -1.7750    0.0000 H   0  0  0  0  0  0  0  0  0  0  0  0
   21.5201   -3.2250    0.0000 H   0  0  0  0  0  0  0  0  0  0  0  0
   22.3171   -3.2250    0.0000 H   0  0  0  0  0  0  0  0  0  0  0  0
   16.3239   -3.2250    0.0000 H   0  0  0  0  0  0  0  0  0  0  0  0
   17.1210   -3.2250    0.0000 H   0  0  0  0  0  0  0  0  0  0  0  0
    2.4675   -3.2250    0.0000 H   0  0  0  0  0  0  0  0  0  0  0  0
    3.2646   -3.2250    0.0000 H   0  0  0  0  0  0  0  0  0  0  0  0
   25.1706    0.8326    0.0000 H   0  0  0  0  0  0  0  0  0  0  0  0
   24.7721    0.1423    0.0000 H   0  0  0  0  0  0  0  0  0  0  0  0
   26.4608    0.1674    0.0000 H   0  0  0  0  0  0  0  0  0  0  0  0
   26.8593    0.8577    0.0000 H   0  0  0  0  0  0  0  0  0  0  0  0
   23.1831   -1.7750    0.0000 H   0  0  0  0  0  0  0  0  0  0  0  0
   22.3861   -1.7750    0.0000 H   0  0  0  0  0  0  0  0  0  0  0  0
   25.5947   -1.3326    0.0000 H   0  0  0  0  0  0  0  0  0  0  0  0
   25.9933   -0.6423    0.0000 H   0  0  0  0  0  0  0  0  0  0  0  0
   26.0367    2.3326    0.0000 H   0  0  0  0  0  0  0  0  0  0  0  0
   25.6381    1.6423    0.0000 H   0  0  0  0  0  0  0  0  0  0  0  0
   15.8564   -1.6300    0.0000 H   0  0  0  0  0  0  0  0  0  0  0  0
   24.3046   -0.6674    0.0000 H   0  0  0  0  0  0  0  0  0  0  0  0
   23.9061   -1.3577    0.0000 H   0  0  0  0  0  0  0  0  0  0  0  0
   27.3268    1.6674    0.0000 H   0  0  0  0  0  0  0  0  0  0  0  0
   27.7253    2.3577    0.0000 H   0  0  0  0  0  0  0  0  0  0  0  0
   23.6506   -3.3700    0.0000 H   0  0  0  0  0  0  0  0  0  0  0  0
    2.3100   -1.7131    0.0000 H   0  0  0  0  0  0  0  0  0  0  0  0
    1.4631   -1.9400    0.0000 H   0  0  0  0  0  0  0  0  0  0  0  0
    1.6900   -2.7869    0.0000 H   0  0  0  0  0  0  0  0  0  0  0  0
   25.0536   -2.5600    0.0000 H   0  0  0  0  0  0  0  0  0  0  0  0
   26.9027    3.8326    0.0000 H   0  0  0  0  0  0  0  0  0  0  0  0
   26.5042    3.1423    0.0000 H   0  0  0  0  0  0  0  0  0  0  0  0
   28.2908    3.2131    0.0000 H   0  0  0  0  0  0  0  0  0  0  0  0
   28.5177    4.0600    0.0000 H   0  0  0  0  0  0  0  0  0  0  0  0
   27.6708    4.2869    0.0000 H   0  0  0  0  0  0  0  0  0  0  0  0
  1 27  2  0  0  0  0
  2 22  1  0  0  0  0
  2 27  1  0  0  0  0
  2 89  1  0  0  0  0
  3  4  1  0  0  0  0
  3  5  1  0  0  0  0
  3 37  1  0  0  0  0
  3 38  1  0  0  0  0
  4  6  1  0  0  0  0
  4 39  1  0  0  0  0
  4 40  1  0  0  0  0
  5  7  1  0  0  0  0
  5 41  1  0  0  0  0
  5 42  1  0  0  0  0
  6  8  1  0  0  0  0
  6 43  1  0  0  0  0
  6 44  1  0  0  0  0
  7  9  1  0  0  0  0
  7 45  1  0  0  0  0
  7 46  1  0  0  0  0
  8 10  1  0  0  0  0
  8 47  1  0  0  0  0
  8 48  1  0  0  0  0
  9 11  1  0  0  0  0
  9 49  1  0  0  0  0
  9 50  1  0  0  0  0
 10 12  1  0  0  0  0
 10 51  1  0  0  0  0
 10 52  1  0  0  0  0
 11 13  1  0  0  0  0
 11 53  1  0  0  0  0
 11 54  1  0  0  0  0
 12 14  1  0  0  0  0
 12 55  1  0  0  0  0
 12 56  1  0  0  0  0
 13 19  1  0  0  0  0
 13 57  1  0  0  0  0
 13 58  1  0  0  0  0
 14 23  1  0  0  0  0
 14 61  1  0  0  0  0
 14 62  1  0  0  0  0
 15 16  1  0  0  0  0
 15 17  1  0  0  0  0
 15 59  1  0  0  0  0
 15 60  1  0  0  0  0
 16 18  1  0  0  0  0
 16 63  1  0  0  0  0
 16 64  1  0  0  0  0
 17 20  1  0  0  0  0
 17 65  1  0  0  0  0
 17 66  1  0  0  0  0
 18 21  1  0  0  0  0
 18 67  1  0  0  0  0
 18 68  1  0  0  0  0
 19 27  1  0  0  0  0
 19 69  1  0  0  0  0
 19 70  1  0  0  0  0
 20 22  1  0  0  0  0
 20 71  1  0  0  0  0
 20 72  1  0  0  0  0
 21 26  1  0  0  0  0
 21 73  1  0  0  0  0
 21 74  1  0  0  0  0
 22 75  1  0  0  0  0
 22 76  1  0  0  0  0
 23 33  1  0  0  0  0
 23 77  1  0  0  0  0
 23 78  1  0  0  0  0
 24 25  1  0  0  0  0
 24 28  1  0  0  0  0
 24 79  1  0  0  0  0
 24 80  1  0  0  0  0
 25 29  1  0  0  0  0
 25 81  1  0  0  0  0
 25 82  1  0  0  0  0
 26 32  1  0  0  0  0
 26 83  1  0  0  0  0
 26 84  1  0  0  0  0
 28 30  1  0  0  0  0
 28 85  1  0  0  0  0
 28 86  1  0  0  0  0
 29 31  1  0  0  0  0
 29 87  1  0  0  0  0
 29 88  1  0  0  0  0
 30 34  1  0  0  0  0
 30 90  1  0  0  0  0
 30 91  1  0  0  0  0
 31 35  1  0  0  0  0
 31 92  1  0  0  0  0
 31 93  1  0  0  0  0
 32 34  2  0  0  0  0
 32 94  1  0  0  0  0
 33 95  1  0  0  0  0
 33 96  1  0  0  0  0
 33 97  1  0  0  0  0
 34 98  1  0  0  0  0
 35 36  1  0  0  0  0
 35 99  1  0  0  0  0
 35100  1  0  0  0  0
 36101  1  0  0  0  0
 36102  1  0  0  0  0
 36103  1  0  0  0  0
M  END
> <PUBCHEM_COMPOUND_CID>
6436436

> <PUBCHEM_COMPOUND_CANONICALIZED>
1

> <PUBCHEM_CACTVS_COMPLEXITY>
444

> <PUBCHEM_CACTVS_HBOND_ACCEPTOR>
1

> <PUBCHEM_CACTVS_HBOND_DONOR>
1

> <PUBCHEM_CACTVS_ROTATABLE_BOND>
30

> <PUBCHEM_CACTVS_SUBSKEYS>
AAADcfB+IAAAAAAAAAAAAAAAAAAAAAAAAAAAAAAAAAAAAAAAAAAAHgAQAAAACADBgAQCAALAAACIACFSEAAAAAAgAAAICIEIAAgAABIAgQAEAAAAlgCIAAMYiICAAAAAAAAAAAAAAAAAAAAAAAAAAAAAAA==

> <PUBCHEM_IUPAC_OPENEYE_NAME>
N-[(Z)-octadec-9-enyl]hexadecanamide

> <PUBCHEM_IUPAC_CAS_NAME>
N-[(Z)-octadec-9-enyl]hexadecanamide

> <PUBCHEM_IUPAC_NAME_MARKUP>
<I>N</I>-[(<I>Z</I>)-octadec-9-enyl]hexadecanamide

> <PUBCHEM_IUPAC_NAME>
N-[(Z)-octadec-9-enyl]hexadecanamide

> <PUBCHEM_IUPAC_SYSTEMATIC_NAME>
N-[(Z)-octadec-9-enyl]hexadecanamide

> <PUBCHEM_IUPAC_TRADITIONAL_NAME>
N-[(Z)-octadec-9-enyl]palmitamide

> <PUBCHEM_IUPAC_INCHI>
InChI=1S/C34H67NO/c1-3-5-7-9-11-13-15-17-18-19-21-23-25-27-29-31-33-35-34(36)32-30-28-26-24-22-20-16-14-12-10-8-6-4-2/h17-18H,3-16,19-33H2,1-2H3,(H,35,36)/b18-17-

> <PUBCHEM_IUPAC_INCHIKEY>
VMRGZRVLZQSNHC-ZCXUNETKSA-N

> <PUBCHEM_XLOGP3_AA>
14.8

> <PUBCHEM_EXACT_MASS>
505.52226576

> <PUBCHEM_MOLECULAR_FORMULA>
C34H67NO

> <PUBCHEM_MOLECULAR_WEIGHT>
505.9

> <PUBCHEM_SMILES>
CCCCCCCCCCCCCCCC(=O)NCCCCCCCC/C=C\CCCCCCCC

> <PUBCHEM_OPENEYE_CAN_SMILES>
CCCCCCCCCCCCCCCC(=O)NCCCCCCCCC=CCCCCCCCC

> <PUBCHEM_OPENEYE_ISO_SMILES>
CCCCCCCCCCCCCCCC(=O)NCCCCCCCC/C=C\CCCCCCCC

> <PUBCHEM_CACTVS_TPSA>
29.1

> <PUBCHEM_MONOISOTOPIC_WEIGHT>
505.52226576

> <PUBCHEM_TOTAL_CHARGE>
0

> <PUBCHEM_HEAVY_ATOM_COUNT>
36

> <PUBCHEM_ATOM_DEF_STEREO_COUNT>
0

> <PUBCHEM_ATOM_UDEF_STEREO_COUNT>
0

> <PUBCHEM_BOND_DEF_STEREO_COUNT>
1

> <PUBCHEM_BOND_UDEF_STEREO_COUNT>
0

> <PUBCHEM_ISOTOPIC_ATOM_COUNT>
0

> <PUBCHEM_COMPONENT_COUNT>
1

> <PUBCHEM_CACTVS_TAUTO_COUNT>
-1

> <PUBCHEM_COORDINATE_TYPE>
1
5
255

$$$$
