6451919
  -OEChem-04042506002D

 74 76  0     0  0  0  0  0  0999 V2000
    4.7320    1.1270    0.0000 O   0  0  0  0  0  0  0  0  0  0  0  0
    8.1962   -1.8730    0.0000 O   0  0  0  0  0  0  0  0  0  0  0  0
    3.0000    4.1270    0.0000 N   0  0  0  0  0  0  0  0  0  0  0  0
    6.4641   -4.8730    0.0000 N   0  0  0  0  0  0  0  0  0  0  0  0
    5.5981    2.6270    0.0000 N   0  0  0  0  0  0  0  0  0  0  0  0
    6.4641   -1.8730    0.0000 N   0  0  0  0  0  0  0  0  0  0  0  0
    3.0000    3.1270    0.0000 C   0  0  0  0  0  0  0  0  0  0  0  0
    3.8660    4.6270    0.0000 C   0  0  0  0  0  0  0  0  0  0  0  0
    7.3301   -4.3730    0.0000 C   0  0  0  0  0  0  0  0  0  0  0  0
    5.5981   -4.3730    0.0000 C   0  0  0  0  0  0  0  0  0  0  0  0
    4.7320    3.1270    0.0000 C   0  0  0  0  0  0  0  0  0  0  0  0
    6.4641   -2.8730    0.0000 C   0  0  0  0  0  0  0  0  0  0  0  0
    3.8660    2.6270    0.0000 C   0  0  0  0  0  0  0  0  0  0  0  0
    4.7320    4.1270    0.0000 C   0  0  0  0  0  0  0  0  0  0  0  0
    7.3301   -3.3730    0.0000 C   0  0  0  0  0  0  0  0  0  0  0  0
    5.5981   -3.3730    0.0000 C   0  0  0  0  0  0  0  0  0  0  0  0
    2.0000    3.1270    0.0000 C   0  0  0  0  0  0  0  0  0  0  0  0
    2.5000    2.2610    0.0000 C   0  0  0  0  0  0  0  0  0  0  0  0
    4.3660    5.4930    0.0000 C   0  0  0  0  0  0  0  0  0  0  0  0
    3.3660    5.4930    0.0000 C   0  0  0  0  0  0  0  0  0  0  0  0
    8.3301   -4.3730    0.0000 C   0  0  0  0  0  0  0  0  0  0  0  0
    7.8301   -5.2390    0.0000 C   0  0  0  0  0  0  0  0  0  0  0  0
    4.5981   -4.3730    0.0000 C   0  0  0  0  0  0  0  0  0  0  0  0
    5.0981   -5.2390    0.0000 C   0  0  0  0  0  0  0  0  0  0  0  0
    5.5981    1.6270    0.0000 C   0  0  0  0  0  0  0  0  0  0  0  0
    7.3301   -1.3730    0.0000 C   0  0  0  0  0  0  0  0  0  0  0  0
    6.4641    1.1270    0.0000 C   0  0  0  0  0  0  0  0  0  0  0  0
    7.3301   -0.3730    0.0000 C   0  0  0  0  0  0  0  0  0  0  0  0
    6.4641    0.1270    0.0000 C   0  0  0  0  0  0  0  0  0  0  0  0
    7.3301    1.6270    0.0000 C   0  0  0  0  0  0  0  0  0  0  0  0
    8.1962    0.1270    0.0000 C   0  0  0  0  0  0  0  0  0  0  0  0
    8.1962    1.1270    0.0000 C   0  0  0  0  0  0  0  0  0  0  0  0
    4.7320    2.5070    0.0000 H   0  0  0  0  0  0  0  0  0  0  0  0
    7.0010   -2.5630    0.0000 H   0  0  0  0  0  0  0  0  0  0  0  0
    3.4675    2.1520    0.0000 H   0  0  0  0  0  0  0  0  0  0  0  0
    4.2646    2.1520    0.0000 H   0  0  0  0  0  0  0  0  0  0  0  0
    5.3426    4.0193    0.0000 H   0  0  0  0  0  0  0  0  0  0  0  0
    4.9441    4.7096    0.0000 H   0  0  0  0  0  0  0  0  0  0  0  0
    7.9407   -3.4807    0.0000 H   0  0  0  0  0  0  0  0  0  0  0  0
    7.5422   -2.7904    0.0000 H   0  0  0  0  0  0  0  0  0  0  0  0
    5.3860   -2.7904    0.0000 H   0  0  0  0  0  0  0  0  0  0  0  0
    4.9875   -3.4807    0.0000 H   0  0  0  0  0  0  0  0  0  0  0  0
    2.4631    4.4370    0.0000 H   0  0  0  0  0  0  0  0  0  0  0  0
    6.4641   -5.4930    0.0000 H   0  0  0  0  0  0  0  0  0  0  0  0
    2.0000    3.7470    0.0000 H   0  0  0  0  0  0  0  0  0  0  0  0
    1.3800    3.1270    0.0000 H   0  0  0  0  0  0  0  0  0  0  0  0
    2.0000    2.5070    0.0000 H   0  0  0  0  0  0  0  0  0  0  0  0
    1.9631    2.5710    0.0000 H   0  0  0  0  0  0  0  0  0  0  0  0
    2.1900    1.7240    0.0000 H   0  0  0  0  0  0  0  0  0  0  0  0
    3.0369    1.9510    0.0000 H   0  0  0  0  0  0  0  0  0  0  0  0
    4.9030    5.1830    0.0000 H   0  0  0  0  0  0  0  0  0  0  0  0
    4.6760    6.0300    0.0000 H   0  0  0  0  0  0  0  0  0  0  0  0
    3.8291    5.8030    0.0000 H   0  0  0  0  0  0  0  0  0  0  0  0
    3.9030    5.8030    0.0000 H   0  0  0  0  0  0  0  0  0  0  0  0
    3.0560    6.0300    0.0000 H   0  0  0  0  0  0  0  0  0  0  0  0
    2.8291    5.1830    0.0000 H   0  0  0  0  0  0  0  0  0  0  0  0
    8.3301   -4.9930    0.0000 H   0  0  0  0  0  0  0  0  0  0  0  0
    8.9501   -4.3730    0.0000 H   0  0  0  0  0  0  0  0  0  0  0  0
    8.3301   -3.7530    0.0000 H   0  0  0  0  0  0  0  0  0  0  0  0
    7.2932   -5.5490    0.0000 H   0  0  0  0  0  0  0  0  0  0  0  0
    8.1401   -5.7760    0.0000 H   0  0  0  0  0  0  0  0  0  0  0  0
    8.3671   -4.9290    0.0000 H   0  0  0  0  0  0  0  0  0  0  0  0
    4.5981   -3.7530    0.0000 H   0  0  0  0  0  0  0  0  0  0  0  0
    3.9781   -4.3730    0.0000 H   0  0  0  0  0  0  0  0  0  0  0  0
    4.5981   -4.9930    0.0000 H   0  0  0  0  0  0  0  0  0  0  0  0
    4.5611   -4.9290    0.0000 H   0  0  0  0  0  0  0  0  0  0  0  0
    4.7881   -5.7760    0.0000 H   0  0  0  0  0  0  0  0  0  0  0  0
    5.6350   -5.5490    0.0000 H   0  0  0  0  0  0  0  0  0  0  0  0
    6.1350    2.9370    0.0000 H   0  0  0  0  0  0  0  0  0  0  0  0
    5.9272   -1.5630    0.0000 H   0  0  0  0  0  0  0  0  0  0  0  0
    5.9272   -0.1830    0.0000 H   0  0  0  0  0  0  0  0  0  0  0  0
    7.3301    2.2470    0.0000 H   0  0  0  0  0  0  0  0  0  0  0  0
    8.7331   -0.1830    0.0000 H   0  0  0  0  0  0  0  0  0  0  0  0
    8.7331    1.4370    0.0000 H   0  0  0  0  0  0  0  0  0  0  0  0
  1 25  2  0  0  0  0
  2 26  2  0  0  0  0
  3  7  1  0  0  0  0
  3  8  1  0  0  0  0
  3 43  1  0  0  0  0
  4  9  1  0  0  0  0
  4 10  1  0  0  0  0
  4 44  1  0  0  0  0
  5 11  1  0  0  0  0
  5 25  1  0  0  0  0
  5 69  1  0  0  0  0
  6 12  1  0  0  0  0
  6 26  1  0  0  0  0
  6 70  1  0  0  0  0
  7 13  1  0  0  0  0
  7 17  1  0  0  0  0
  7 18  1  0  0  0  0
  8 14  1  0  0  0  0
  8 19  1  0  0  0  0
  8 20  1  0  0  0  0
  9 15  1  0  0  0  0
  9 21  1  0  0  0  0
  9 22  1  0  0  0  0
 10 16  1  0  0  0  0
 10 23  1  0  0  0  0
 10 24  1  0  0  0  0
 11 13  1  0  0  0  0
 11 14  1  0  0  0  0
 11 33  1  0  0  0  0
 12 15  1  0  0  0  0
 12 16  1  0  0  0  0
 12 34  1  0  0  0  0
 13 35  1  0  0  0  0
 13 36  1  0  0  0  0
 14 37  1  0  0  0  0
 14 38  1  0  0  0  0
 15 39  1  0  0  0  0
 15 40  1  0  0  0  0
 16 41  1  0  0  0  0
 16 42  1  0  0  0  0
 17 45  1  0  0  0  0
 17 46  1  0  0  0  0
 17 47  1  0  0  0  0
 18 48  1  0  0  0  0
 18 49  1  0  0  0  0
 18 50  1  0  0  0  0
 19 51  1  0  0  0  0
 19 52  1  0  0  0  0
 19 53  1  0  0  0  0
 20 54  1  0  0  0  0
 20 55  1  0  0  0  0
 20 56  1  0  0  0  0
 21 57  1  0  0  0  0
 21 58  1  0  0  0  0
 21 59  1  0  0  0  0
 22 60  1  0  0  0  0
 22 61  1  0  0  0  0
 22 62  1  0  0  0  0
 23 63  1  0  0  0  0
 23 64  1  0  0  0  0
 23 65  1  0  0  0  0
 24 66  1  0  0  0  0
 24 67  1  0  0  0  0
 24 68  1  0  0  0  0
 25 27  1  0  0  0  0
 26 28  1  0  0  0  0
 27 29  2  0  0  0  0
 27 30  1  0  0  0  0
 28 29  1  0  0  0  0
 28 31  2  0  0  0  0
 29 71  1  0  0  0  0
 30 32  2  0  0  0  0
 30 72  1  0  0  0  0
 31 32  1  0  0  0  0
 31 73  1  0  0  0  0
 32 74  1  0  0  0  0
M  END
> <PUBCHEM_COMPOUND_CID>
6451919

> <PUBCHEM_COMPOUND_CANONICALIZED>
1

> <PUBCHEM_CACTVS_COMPLEXITY>
623

> <PUBCHEM_CACTVS_HBOND_ACCEPTOR>
4

> <PUBCHEM_CACTVS_HBOND_DONOR>
4

> <PUBCHEM_CACTVS_ROTATABLE_BOND>
4

> <PUBCHEM_CACTVS_SUBSKEYS>
AAADcfB7sAAAAAAAAAAAAAAAAAAAAAAAAAA8WIAAAAAAAAABAAAAHgAQAAAADKjBmAQyAILAAACIAiFSEACCAAAkAAAIiIEIBMgIIDKA1RGEIQhglgCIiYcYi0COAAACAAAAAAAAAAQAAAAAAAAAAAAAAA==

> <PUBCHEM_IUPAC_OPENEYE_NAME>
N1,N3-bis(2,2,6,6-tetramethyl-4-piperidyl)benzene-1,3-dicarboxamide

> <PUBCHEM_IUPAC_CAS_NAME>
N1,N3-bis(2,2,6,6-tetramethyl-4-piperidinyl)benzene-1,3-dicarboxamide

> <PUBCHEM_IUPAC_NAME_MARKUP>
1-<I>N</I>,3-<I>N</I>-bis(2,2,6,6-tetramethylpiperidin-4-yl)benzene-1,3-dicarboxamide

> <PUBCHEM_IUPAC_NAME>
1-N,3-N-bis(2,2,6,6-tetramethylpiperidin-4-yl)benzene-1,3-dicarboxamide

> <PUBCHEM_IUPAC_SYSTEMATIC_NAME>
N1,N3-bis(2,2,6,6-tetramethylpiperidin-4-yl)benzene-1,3-dicarboxamide

> <PUBCHEM_IUPAC_TRADITIONAL_NAME>
N,N'-bis(2,2,6,6-tetramethyl-4-piperidyl)isophthalamide

> <PUBCHEM_IUPAC_INCHI>
InChI=1S/C26H42N4O2/c1-23(2)13-19(14-24(3,4)29-23)27-21(31)17-10-9-11-18(12-17)22(32)28-20-15-25(5,6)30-26(7,8)16-20/h9-12,19-20,29-30H,13-16H2,1-8H3,(H,27,31)(H,28,32)

> <PUBCHEM_IUPAC_INCHIKEY>
OYNOCRWQLLIRON-UHFFFAOYSA-N

> <PUBCHEM_XLOGP3_AA>
3.2

> <PUBCHEM_EXACT_MASS>
442.33077660

> <PUBCHEM_MOLECULAR_FORMULA>
C26H42N4O2

> <PUBCHEM_MOLECULAR_WEIGHT>
442.6

> <PUBCHEM_SMILES>
CC1(CC(CC(N1)(C)C)NC(=O)C2=CC(=CC=C2)C(=O)NC3CC(NC(C3)(C)C)(C)C)C

> <PUBCHEM_OPENEYE_CAN_SMILES>
CC1(CC(CC(N1)(C)C)NC(=O)C2=CC(=CC=C2)C(=O)NC3CC(NC(C3)(C)C)(C)C)C

> <PUBCHEM_OPENEYE_ISO_SMILES>
CC1(CC(CC(N1)(C)C)NC(=O)C2=CC(=CC=C2)C(=O)NC3CC(NC(C3)(C)C)(C)C)C

> <PUBCHEM_CACTVS_TPSA>
82.3

> <PUBCHEM_MONOISOTOPIC_WEIGHT>
442.33077660

> <PUBCHEM_TOTAL_CHARGE>
0

> <PUBCHEM_HEAVY_ATOM_COUNT>
32

> <PUBCHEM_ATOM_DEF_STEREO_COUNT>
0

> <PUBCHEM_ATOM_UDEF_STEREO_COUNT>
0

> <PUBCHEM_BOND_DEF_STEREO_COUNT>
0

> <PUBCHEM_BOND_UDEF_STEREO_COUNT>
0

> <PUBCHEM_ISOTOPIC_ATOM_COUNT>
0

> <PUBCHEM_COMPONENT_COUNT>
1

> <PUBCHEM_CACTVS_TAUTO_COUNT>
-1

> <PUBCHEM_COORDINATE_TYPE>
1
5
255

> <PUBCHEM_BONDANNOTATIONS>
27  29  8
27  30  8
28  29  8
28  31  8
30  32  8
31  32  8

$$$$
