6454268
  -OEChem-04042513072D

235235  0     1  0  0  0  0  0999 V2000
   19.5079   -6.6944    0.0000 O   0  0  0  0  0  0  0  0  0  0  0  0
   19.0079   -4.1555    0.0000 O   0  0  0  0  0  0  0  0  0  0  0  0
   17.2478   -5.4343    0.0000 O   0  0  0  0  0  0  0  0  0  0  0  0
   21.5111   -6.1034    0.0000 O   0  0  0  0  0  0  0  0  0  0  0  0
   21.9269   -4.1471    0.0000 O   0  0  0  0  0  0  0  0  0  0  0  0
   17.2758   -4.1555    0.0000 O   0  0  0  0  0  0  0  0  0  0  0  0
   16.7126   -7.0816    0.0000 O   0  0  0  0  0  0  0  0  0  0  0  0
   22.6701   -4.8163    0.0000 O   0  0  0  0  0  0  0  0  0  0  0  0
   21.3917   -2.4999    0.0000 O   0  0  0  0  0  0  0  0  0  0  0  0
   19.8169   -5.7433    0.0000 C   0  0  3  0  0  0  0  0  0  0  0  0
   19.0079   -5.1555    0.0000 C   0  0  1  0  0  0  0  0  0  0  0  0
   18.1989   -5.7433    0.0000 C   0  0  2  0  0  0  0  0  0  0  0  0
   20.7680   -5.4343    0.0000 C   0  0  1  0  0  0  0  0  0  0  0  0
   18.5079   -6.6944    0.0000 C   0  0  0  0  0  0  0  0  0  0  0  0
   20.9759   -4.4562    0.0000 C   0  0  0  0  0  0  0  0  0  0  0  0
   18.1419   -3.6555    0.0000 C   0  0  0  0  0  0  0  0  0  0  0  0
   16.5047   -6.1034    0.0000 C   0  0  0  0  0  0  0  0  0  0  0  0
   18.1419   -2.6555    0.0000 C   0  0  0  0  0  0  0  0  0  0  0  0
   22.4622   -5.7944    0.0000 C   0  0  0  0  0  0  0  0  0  0  0  0
   15.5536   -5.7944    0.0000 C   0  0  0  0  0  0  0  0  0  0  0  0
   17.2758   -2.1555    0.0000 C   0  0  0  0  0  0  0  0  0  0  0  0
   23.2053   -6.4636    0.0000 C   0  0  0  0  0  0  0  0  0  0  0  0
   14.8105   -6.4636    0.0000 C   0  0  0  0  0  0  0  0  0  0  0  0
   17.2758   -1.1555    0.0000 C   0  0  0  0  0  0  0  0  0  0  0  0
   24.1564   -6.1545    0.0000 C   0  0  0  0  0  0  0  0  0  0  0  0
   13.8594   -6.1545    0.0000 C   0  0  0  0  0  0  0  0  0  0  0  0
   22.1348   -3.1690    0.0000 C   0  0  0  0  0  0  0  0  0  0  0  0
   16.4098   -0.6555    0.0000 C   0  0  0  0  0  0  0  0  0  0  0  0
   24.8995   -6.8237    0.0000 C   0  0  0  0  0  0  0  0  0  0  0  0
   13.1163   -6.8237    0.0000 C   0  0  0  0  0  0  0  0  0  0  0  0
   23.0859   -2.8600    0.0000 C   0  0  0  0  0  0  0  0  0  0  0  0
   16.4098    0.3445    0.0000 C   0  0  0  0  0  0  0  0  0  0  0  0
   25.8506   -6.5146    0.0000 C   0  0  0  0  0  0  0  0  0  0  0  0
   12.1652   -6.5146    0.0000 C   0  0  0  0  0  0  0  0  0  0  0  0
   23.2938   -1.8818    0.0000 C   0  0  0  0  0  0  0  0  0  0  0  0
   15.5438    0.8445    0.0000 C   0  0  0  0  0  0  0  0  0  0  0  0
   26.5937   -7.1838    0.0000 C   0  0  0  0  0  0  0  0  0  0  0  0
   11.4221   -7.1838    0.0000 C   0  0  0  0  0  0  0  0  0  0  0  0
   24.2449   -1.5728    0.0000 C   0  0  0  0  0  0  0  0  0  0  0  0
   15.5438    1.8445    0.0000 C   0  0  0  0  0  0  0  0  0  0  0  0
   27.5448   -6.8748    0.0000 C   0  0  0  0  0  0  0  0  0  0  0  0
   10.4710   -6.8748    0.0000 C   0  0  0  0  0  0  0  0  0  0  0  0
   24.4528   -0.5947    0.0000 C   0  0  0  0  0  0  0  0  0  0  0  0
   14.6778    2.3445    0.0000 C   0  0  0  0  0  0  0  0  0  0  0  0
   28.2879   -7.5439    0.0000 C   0  0  0  0  0  0  0  0  0  0  0  0
    9.7279   -7.5439    0.0000 C   0  0  0  0  0  0  0  0  0  0  0  0
   25.4038   -0.2856    0.0000 C   0  0  0  0  0  0  0  0  0  0  0  0
   14.6778    3.3445    0.0000 C   0  0  0  0  0  0  0  0  0  0  0  0
   29.2390   -7.2349    0.0000 C   0  0  0  0  0  0  0  0  0  0  0  0
    8.7768   -7.2349    0.0000 C   0  0  0  0  0  0  0  0  0  0  0  0
   25.6117    0.6925    0.0000 C   0  0  0  0  0  0  0  0  0  0  0  0
   29.9821   -7.9040    0.0000 C   0  0  0  0  0  0  0  0  0  0  0  0
   13.8117    3.8445    0.0000 C   0  0  0  0  0  0  0  0  0  0  0  0
   26.5628    1.0015    0.0000 C   0  0  0  0  0  0  0  0  0  0  0  0
    8.0337   -7.9040    0.0000 C   0  0  0  0  0  0  0  0  0  0  0  0
   26.7707    1.9797    0.0000 C   0  0  0  0  0  0  0  0  0  0  0  0
   30.9332   -7.5950    0.0000 C   0  0  0  0  0  0  0  0  0  0  0  0
   13.8117    4.8445    0.0000 C   0  0  0  0  0  0  0  0  0  0  0  0
    7.0826   -7.5950    0.0000 C   0  0  0  0  0  0  0  0  0  0  0  0
   27.7218    2.2887    0.0000 C   0  0  0  0  0  0  0  0  0  0  0  0
   31.6763   -8.2641    0.0000 C   0  0  0  0  0  0  0  0  0  0  0  0
   12.9457    5.3445    0.0000 C   0  0  0  0  0  0  0  0  0  0  0  0
   27.9297    3.2668    0.0000 C   0  0  0  0  0  0  0  0  0  0  0  0
    6.3395   -8.2641    0.0000 C   0  0  0  0  0  0  0  0  0  0  0  0
   32.6274   -7.9551    0.0000 C   0  0  0  0  0  0  0  0  0  0  0  0
   28.8807    3.5758    0.0000 C   0  0  0  0  0  0  0  0  0  0  0  0
   12.9457    6.3445    0.0000 C   0  0  0  0  0  0  0  0  0  0  0  0
    5.3884   -7.9551    0.0000 C   0  0  0  0  0  0  0  0  0  0  0  0
   29.0886    4.5540    0.0000 C   0  0  0  0  0  0  0  0  0  0  0  0
   33.3705   -8.6242    0.0000 C   0  0  0  0  0  0  0  0  0  0  0  0
   12.0797    6.8445    0.0000 C   0  0  0  0  0  0  0  0  0  0  0  0
   30.0397    4.8630    0.0000 C   0  0  0  0  0  0  0  0  0  0  0  0
    4.6453   -8.6242    0.0000 C   0  0  0  0  0  0  0  0  0  0  0  0
   34.3216   -8.3152    0.0000 C   0  0  0  0  0  0  0  0  0  0  0  0
   30.2476    5.8412    0.0000 C   0  0  0  0  0  0  0  0  0  0  0  0
   12.0797    7.8445    0.0000 C   0  0  0  0  0  0  0  0  0  0  0  0
    3.6942   -8.3152    0.0000 C   0  0  0  0  0  0  0  0  0  0  0  0
   35.0647   -8.9843    0.0000 C   0  0  0  0  0  0  0  0  0  0  0  0
   31.1987    6.1502    0.0000 C   0  0  0  0  0  0  0  0  0  0  0  0
   11.2137    8.3445    0.0000 C   0  0  0  0  0  0  0  0  0  0  0  0
    2.9511   -8.9843    0.0000 C   0  0  0  0  0  0  0  0  0  0  0  0
   36.0158   -8.6753    0.0000 C   0  0  0  0  0  0  0  0  0  0  0  0
   31.4066    7.1283    0.0000 C   0  0  0  0  0  0  0  0  0  0  0  0
   11.2137    9.3445    0.0000 C   0  0  0  0  0  0  0  0  0  0  0  0
    2.0000   -8.6753    0.0000 C   0  0  0  0  0  0  0  0  0  0  0  0
   36.7589   -9.3445    0.0000 C   0  0  0  0  0  0  0  0  0  0  0  0
   32.3576    7.4373    0.0000 C   0  0  0  0  0  0  0  0  0  0  0  0
   20.2553   -6.1817    0.0000 H   0  0  0  0  0  0  0  0  0  0  0  0
   19.5603   -4.8741    0.0000 H   0  0  0  0  0  0  0  0  0  0  0  0
   17.7605   -6.1817    0.0000 H   0  0  0  0  0  0  0  0  0  0  0  0
   21.3576   -5.2427    0.0000 H   0  0  0  0  0  0  0  0  0  0  0  0
   17.9014   -6.8233    0.0000 H   0  0  0  0  0  0  0  0  0  0  0  0
   18.5727   -7.3110    0.0000 H   0  0  0  0  0  0  0  0  0  0  0  0
   20.8896   -3.8422    0.0000 H   0  0  0  0  0  0  0  0  0  0  0  0
   20.3562   -4.4345    0.0000 H   0  0  0  0  0  0  0  0  0  0  0  0
   18.7524   -2.7632    0.0000 H   0  0  0  0  0  0  0  0  0  0  0  0
   18.3539   -2.0729    0.0000 H   0  0  0  0  0  0  0  0  0  0  0  0
   15.8447   -5.2470    0.0000 H   0  0  0  0  0  0  0  0  0  0  0  0
   15.0650   -5.4127    0.0000 H   0  0  0  0  0  0  0  0  0  0  0  0
   16.6653   -2.0479    0.0000 H   0  0  0  0  0  0  0  0  0  0  0  0
   17.0638   -2.7382    0.0000 H   0  0  0  0  0  0  0  0  0  0  0  0
   22.7167   -6.8453    0.0000 H   0  0  0  0  0  0  0  0  0  0  0  0
   23.4964   -7.0110    0.0000 H   0  0  0  0  0  0  0  0  0  0  0  0
   14.5194   -7.0110    0.0000 H   0  0  0  0  0  0  0  0  0  0  0  0
   15.2990   -6.8453    0.0000 H   0  0  0  0  0  0  0  0  0  0  0  0
   17.8864   -1.2632    0.0000 H   0  0  0  0  0  0  0  0  0  0  0  0
   17.4879   -0.5729    0.0000 H   0  0  0  0  0  0  0  0  0  0  0  0
   24.6449   -5.7728    0.0000 H   0  0  0  0  0  0  0  0  0  0  0  0
   23.8653   -5.6071    0.0000 H   0  0  0  0  0  0  0  0  0  0  0  0
   14.1505   -5.6071    0.0000 H   0  0  0  0  0  0  0  0  0  0  0  0
   13.3708   -5.7728    0.0000 H   0  0  0  0  0  0  0  0  0  0  0  0
   15.7992   -0.5479    0.0000 H   0  0  0  0  0  0  0  0  0  0  0  0
   16.1978   -1.2382    0.0000 H   0  0  0  0  0  0  0  0  0  0  0  0
   24.4109   -7.2054    0.0000 H   0  0  0  0  0  0  0  0  0  0  0  0
   25.1906   -7.3711    0.0000 H   0  0  0  0  0  0  0  0  0  0  0  0
   12.8252   -7.3711    0.0000 H   0  0  0  0  0  0  0  0  0  0  0  0
   13.6048   -7.2054    0.0000 H   0  0  0  0  0  0  0  0  0  0  0  0
   23.1722   -3.4739    0.0000 H   0  0  0  0  0  0  0  0  0  0  0  0
   23.7055   -2.8816    0.0000 H   0  0  0  0  0  0  0  0  0  0  0  0
   17.0204    0.2368    0.0000 H   0  0  0  0  0  0  0  0  0  0  0  0
   16.6219    0.9271    0.0000 H   0  0  0  0  0  0  0  0  0  0  0  0
   26.3391   -6.1329    0.0000 H   0  0  0  0  0  0  0  0  0  0  0  0
   25.5595   -5.9672    0.0000 H   0  0  0  0  0  0  0  0  0  0  0  0
   12.4563   -5.9672    0.0000 H   0  0  0  0  0  0  0  0  0  0  0  0
   11.6766   -6.1329    0.0000 H   0  0  0  0  0  0  0  0  0  0  0  0
   23.2075   -1.2679    0.0000 H   0  0  0  0  0  0  0  0  0  0  0  0
   22.6742   -1.8602    0.0000 H   0  0  0  0  0  0  0  0  0  0  0  0
   14.9332    0.9521    0.0000 H   0  0  0  0  0  0  0  0  0  0  0  0
   15.3317    0.2619    0.0000 H   0  0  0  0  0  0  0  0  0  0  0  0
   26.1051   -7.5655    0.0000 H   0  0  0  0  0  0  0  0  0  0  0  0
   26.8848   -7.7312    0.0000 H   0  0  0  0  0  0  0  0  0  0  0  0
   11.1310   -7.7312    0.0000 H   0  0  0  0  0  0  0  0  0  0  0  0
   11.9106   -7.5655    0.0000 H   0  0  0  0  0  0  0  0  0  0  0  0
   24.3312   -2.1868    0.0000 H   0  0  0  0  0  0  0  0  0  0  0  0
   24.8645   -1.5944    0.0000 H   0  0  0  0  0  0  0  0  0  0  0  0
   16.1544    1.7368    0.0000 H   0  0  0  0  0  0  0  0  0  0  0  0
   15.7558    2.4271    0.0000 H   0  0  0  0  0  0  0  0  0  0  0  0
   28.0333   -6.4930    0.0000 H   0  0  0  0  0  0  0  0  0  0  0  0
   27.2537   -6.3273    0.0000 H   0  0  0  0  0  0  0  0  0  0  0  0
   10.7621   -6.3273    0.0000 H   0  0  0  0  0  0  0  0  0  0  0  0
    9.9824   -6.4930    0.0000 H   0  0  0  0  0  0  0  0  0  0  0  0
   24.3665    0.0193    0.0000 H   0  0  0  0  0  0  0  0  0  0  0  0
   23.8332   -0.5730    0.0000 H   0  0  0  0  0  0  0  0  0  0  0  0
   14.0672    2.4521    0.0000 H   0  0  0  0  0  0  0  0  0  0  0  0
   14.4657    1.7618    0.0000 H   0  0  0  0  0  0  0  0  0  0  0  0
   27.7993   -7.9256    0.0000 H   0  0  0  0  0  0  0  0  0  0  0  0
   28.5790   -8.0913    0.0000 H   0  0  0  0  0  0  0  0  0  0  0  0
    9.4368   -8.0913    0.0000 H   0  0  0  0  0  0  0  0  0  0  0  0
   10.2164   -7.9256    0.0000 H   0  0  0  0  0  0  0  0  0  0  0  0
   25.4901   -0.8996    0.0000 H   0  0  0  0  0  0  0  0  0  0  0  0
   26.0235   -0.3073    0.0000 H   0  0  0  0  0  0  0  0  0  0  0  0
   15.2883    3.2368    0.0000 H   0  0  0  0  0  0  0  0  0  0  0  0
   14.8898    3.9271    0.0000 H   0  0  0  0  0  0  0  0  0  0  0  0
   29.7275   -6.8532    0.0000 H   0  0  0  0  0  0  0  0  0  0  0  0
   28.9479   -6.6874    0.0000 H   0  0  0  0  0  0  0  0  0  0  0  0
    9.0679   -6.6874    0.0000 H   0  0  0  0  0  0  0  0  0  0  0  0
    8.2882   -6.8532    0.0000 H   0  0  0  0  0  0  0  0  0  0  0  0
   25.5255    1.3065    0.0000 H   0  0  0  0  0  0  0  0  0  0  0  0
   24.9921    0.7141    0.0000 H   0  0  0  0  0  0  0  0  0  0  0  0
   29.4935   -8.2857    0.0000 H   0  0  0  0  0  0  0  0  0  0  0  0
   30.2732   -8.4514    0.0000 H   0  0  0  0  0  0  0  0  0  0  0  0
   13.2012    3.9521    0.0000 H   0  0  0  0  0  0  0  0  0  0  0  0
   13.5997    3.2618    0.0000 H   0  0  0  0  0  0  0  0  0  0  0  0
   26.6491    0.3875    0.0000 H   0  0  0  0  0  0  0  0  0  0  0  0
   27.1824    0.9799    0.0000 H   0  0  0  0  0  0  0  0  0  0  0  0
    7.7426   -8.4514    0.0000 H   0  0  0  0  0  0  0  0  0  0  0  0
    8.5222   -8.2857    0.0000 H   0  0  0  0  0  0  0  0  0  0  0  0
   26.6844    2.5936    0.0000 H   0  0  0  0  0  0  0  0  0  0  0  0
   26.1511    2.0013    0.0000 H   0  0  0  0  0  0  0  0  0  0  0  0
   31.4217   -7.2133    0.0000 H   0  0  0  0  0  0  0  0  0  0  0  0
   30.6421   -7.0476    0.0000 H   0  0  0  0  0  0  0  0  0  0  0  0
   14.4223    4.7368    0.0000 H   0  0  0  0  0  0  0  0  0  0  0  0
   14.0238    5.4271    0.0000 H   0  0  0  0  0  0  0  0  0  0  0  0
    7.3737   -7.0476    0.0000 H   0  0  0  0  0  0  0  0  0  0  0  0
    6.5940   -7.2133    0.0000 H   0  0  0  0  0  0  0  0  0  0  0  0
   27.8081    1.6747    0.0000 H   0  0  0  0  0  0  0  0  0  0  0  0
   28.3414    2.2670    0.0000 H   0  0  0  0  0  0  0  0  0  0  0  0
   31.1877   -8.6458    0.0000 H   0  0  0  0  0  0  0  0  0  0  0  0
   31.9674   -8.8116    0.0000 H   0  0  0  0  0  0  0  0  0  0  0  0
   12.3351    5.4521    0.0000 H   0  0  0  0  0  0  0  0  0  0  0  0
   12.7337    4.7618    0.0000 H   0  0  0  0  0  0  0  0  0  0  0  0
   27.8434    3.8808    0.0000 H   0  0  0  0  0  0  0  0  0  0  0  0
   27.3101    3.2885    0.0000 H   0  0  0  0  0  0  0  0  0  0  0  0
    6.0484   -8.8116    0.0000 H   0  0  0  0  0  0  0  0  0  0  0  0
    6.8280   -8.6458    0.0000 H   0  0  0  0  0  0  0  0  0  0  0  0
   33.1159   -7.5734    0.0000 H   0  0  0  0  0  0  0  0  0  0  0  0
   32.3363   -7.4077    0.0000 H   0  0  0  0  0  0  0  0  0  0  0  0
   28.9670    2.9619    0.0000 H   0  0  0  0  0  0  0  0  0  0  0  0
   29.5004    3.5542    0.0000 H   0  0  0  0  0  0  0  0  0  0  0  0
   13.5563    6.2368    0.0000 H   0  0  0  0  0  0  0  0  0  0  0  0
   13.1578    6.9271    0.0000 H   0  0  0  0  0  0  0  0  0  0  0  0
    5.6795   -7.4077    0.0000 H   0  0  0  0  0  0  0  0  0  0  0  0
    4.8998   -7.5734    0.0000 H   0  0  0  0  0  0  0  0  0  0  0  0
   29.0024    5.1680    0.0000 H   0  0  0  0  0  0  0  0  0  0  0  0
   28.4690    4.5756    0.0000 H   0  0  0  0  0  0  0  0  0  0  0  0
   32.8819   -9.0059    0.0000 H   0  0  0  0  0  0  0  0  0  0  0  0
   33.6616   -9.1717    0.0000 H   0  0  0  0  0  0  0  0  0  0  0  0
   11.4691    6.9521    0.0000 H   0  0  0  0  0  0  0  0  0  0  0  0
   11.8676    6.2618    0.0000 H   0  0  0  0  0  0  0  0  0  0  0  0
   30.1260    4.2490    0.0000 H   0  0  0  0  0  0  0  0  0  0  0  0
   30.6593    4.8414    0.0000 H   0  0  0  0  0  0  0  0  0  0  0  0
    4.3542   -9.1717    0.0000 H   0  0  0  0  0  0  0  0  0  0  0  0
    5.1338   -9.0059    0.0000 H   0  0  0  0  0  0  0  0  0  0  0  0
   34.8101   -7.9335    0.0000 H   0  0  0  0  0  0  0  0  0  0  0  0
   34.0305   -7.7678    0.0000 H   0  0  0  0  0  0  0  0  0  0  0  0
   30.1613    6.4551    0.0000 H   0  0  0  0  0  0  0  0  0  0  0  0
   29.6280    5.8628    0.0000 H   0  0  0  0  0  0  0  0  0  0  0  0
   12.6903    7.7368    0.0000 H   0  0  0  0  0  0  0  0  0  0  0  0
   12.2917    8.4271    0.0000 H   0  0  0  0  0  0  0  0  0  0  0  0
    3.9853   -7.7678    0.0000 H   0  0  0  0  0  0  0  0  0  0  0  0
    3.2056   -7.9335    0.0000 H   0  0  0  0  0  0  0  0  0  0  0  0
   34.5761   -9.3661    0.0000 H   0  0  0  0  0  0  0  0  0  0  0  0
   35.3558   -9.5318    0.0000 H   0  0  0  0  0  0  0  0  0  0  0  0
   31.2850    5.5362    0.0000 H   0  0  0  0  0  0  0  0  0  0  0  0
   31.8183    6.1285    0.0000 H   0  0  0  0  0  0  0  0  0  0  0  0
   10.6031    8.4521    0.0000 H   0  0  0  0  0  0  0  0  0  0  0  0
   11.0016    7.7618    0.0000 H   0  0  0  0  0  0  0  0  0  0  0  0
    2.6600   -9.5318    0.0000 H   0  0  0  0  0  0  0  0  0  0  0  0
    3.4396   -9.3661    0.0000 H   0  0  0  0  0  0  0  0  0  0  0  0
   36.5043   -8.2936    0.0000 H   0  0  0  0  0  0  0  0  0  0  0  0
   35.7247   -8.1279    0.0000 H   0  0  0  0  0  0  0  0  0  0  0  0
   31.3203    7.7423    0.0000 H   0  0  0  0  0  0  0  0  0  0  0  0
   30.7870    7.1500    0.0000 H   0  0  0  0  0  0  0  0  0  0  0  0
   11.8337    9.3445    0.0000 H   0  0  0  0  0  0  0  0  0  0  0  0
   11.2137    9.9645    0.0000 H   0  0  0  0  0  0  0  0  0  0  0  0
   10.5937    9.3445    0.0000 H   0  0  0  0  0  0  0  0  0  0  0  0
    2.1916   -8.0857    0.0000 H   0  0  0  0  0  0  0  0  0  0  0  0
    1.4103   -8.4837    0.0000 H   0  0  0  0  0  0  0  0  0  0  0  0
    1.8084   -9.2650    0.0000 H   0  0  0  0  0  0  0  0  0  0  0  0
   36.3441   -9.8052    0.0000 H   0  0  0  0  0  0  0  0  0  0  0  0
   37.2197   -9.7593    0.0000 H   0  0  0  0  0  0  0  0  0  0  0  0
   37.1738   -8.8837    0.0000 H   0  0  0  0  0  0  0  0  0  0  0  0
   32.5492    6.8477    0.0000 H   0  0  0  0  0  0  0  0  0  0  0  0
   32.9473    7.6289    0.0000 H   0  0  0  0  0  0  0  0  0  0  0  0
   32.1660    8.0270    0.0000 H   0  0  0  0  0  0  0  0  0  0  0  0
  1 10  1  0  0  0  0
  1 14  1  0  0  0  0
 11  2  1  1  0  0  0
  2 16  1  0  0  0  0
 12  3  1  6  0  0  0
  3 17  1  0  0  0  0
 13  4  1  1  0  0  0
  4 19  1  0  0  0  0
  5 15  1  0  0  0  0
  5 27  1  0  0  0  0
  6 16  2  0  0  0  0
  7 17  2  0  0  0  0
  8 19  2  0  0  0  0
  9 27  2  0  0  0  0
 10 11  1  0  0  0  0
 10 13  1  0  0  0  0
 10 88  1  0  0  0  0
 11 12  1  0  0  0  0
 11 89  1  0  0  0  0
 12 14  1  0  0  0  0
 12 90  1  0  0  0  0
 13 15  1  0  0  0  0
 13 91  1  0  0  0  0
 14 92  1  0  0  0  0
 14 93  1  0  0  0  0
 15 94  1  0  0  0  0
 15 95  1  0  0  0  0
 16 18  1  0  0  0  0
 17 20  1  0  0  0  0
 18 21  1  0  0  0  0
 18 96  1  0  0  0  0
 18 97  1  0  0  0  0
 19 22  1  0  0  0  0
 20 23  1  0  0  0  0
 20 98  1  0  0  0  0
 20 99  1  0  0  0  0
 21 24  1  0  0  0  0
 21100  1  0  0  0  0
 21101  1  0  0  0  0
 22 25  1  0  0  0  0
 22102  1  0  0  0  0
 22103  1  0  0  0  0
 23 26  1  0  0  0  0
 23104  1  0  0  0  0
 23105  1  0  0  0  0
 24 28  1  0  0  0  0
 24106  1  0  0  0  0
 24107  1  0  0  0  0
 25 29  1  0  0  0  0
 25108  1  0  0  0  0
 25109  1  0  0  0  0
 26 30  1  0  0  0  0
 26110  1  0  0  0  0
 26111  1  0  0  0  0
 27 31  1  0  0  0  0
 28 32  1  0  0  0  0
 28112  1  0  0  0  0
 28113  1  0  0  0  0
 29 33  1  0  0  0  0
 29114  1  0  0  0  0
 29115  1  0  0  0  0
 30 34  1  0  0  0  0
 30116  1  0  0  0  0
 30117  1  0  0  0  0
 31 35  1  0  0  0  0
 31118  1  0  0  0  0
 31119  1  0  0  0  0
 32 36  1  0  0  0  0
 32120  1  0  0  0  0
 32121  1  0  0  0  0
 33 37  1  0  0  0  0
 33122  1  0  0  0  0
 33123  1  0  0  0  0
 34 38  1  0  0  0  0
 34124  1  0  0  0  0
 34125  1  0  0  0  0
 35 39  1  0  0  0  0
 35126  1  0  0  0  0
 35127  1  0  0  0  0
 36 40  1  0  0  0  0
 36128  1  0  0  0  0
 36129  1  0  0  0  0
 37 41  1  0  0  0  0
 37130  1  0  0  0  0
 37131  1  0  0  0  0
 38 42  1  0  0  0  0
 38132  1  0  0  0  0
 38133  1  0  0  0  0
 39 43  1  0  0  0  0
 39134  1  0  0  0  0
 39135  1  0  0  0  0
 40 44  1  0  0  0  0
 40136  1  0  0  0  0
 40137  1  0  0  0  0
 41 45  1  0  0  0  0
 41138  1  0  0  0  0
 41139  1  0  0  0  0
 42 46  1  0  0  0  0
 42140  1  0  0  0  0
 42141  1  0  0  0  0
 43 47  1  0  0  0  0
 43142  1  0  0  0  0
 43143  1  0  0  0  0
 44 48  1  0  0  0  0
 44144  1  0  0  0  0
 44145  1  0  0  0  0
 45 49  1  0  0  0  0
 45146  1  0  0  0  0
 45147  1  0  0  0  0
 46 50  1  0  0  0  0
 46148  1  0  0  0  0
 46149  1  0  0  0  0
 47 51  1  0  0  0  0
 47150  1  0  0  0  0
 47151  1  0  0  0  0
 48 53  1  0  0  0  0
 48152  1  0  0  0  0
 48153  1  0  0  0  0
 49 52  1  0  0  0  0
 49154  1  0  0  0  0
 49155  1  0  0  0  0
 50 55  1  0  0  0  0
 50156  1  0  0  0  0
 50157  1  0  0  0  0
 51 54  1  0  0  0  0
 51158  1  0  0  0  0
 51159  1  0  0  0  0
 52 57  1  0  0  0  0
 52160  1  0  0  0  0
 52161  1  0  0  0  0
 53 58  1  0  0  0  0
 53162  1  0  0  0  0
 53163  1  0  0  0  0
 54 56  1  0  0  0  0
 54164  1  0  0  0  0
 54165  1  0  0  0  0
 55 59  1  0  0  0  0
 55166  1  0  0  0  0
 55167  1  0  0  0  0
 56 60  1  0  0  0  0
 56168  1  0  0  0  0
 56169  1  0  0  0  0
 57 61  1  0  0  0  0
 57170  1  0  0  0  0
 57171  1  0  0  0  0
 58 62  1  0  0  0  0
 58172  1  0  0  0  0
 58173  1  0  0  0  0
 59 64  1  0  0  0  0
 59174  1  0  0  0  0
 59175  1  0  0  0  0
 60 63  1  0  0  0  0
 60176  1  0  0  0  0
 60177  1  0  0  0  0
 61 65  1  0  0  0  0
 61178  1  0  0  0  0
 61179  1  0  0  0  0
 62 67  1  0  0  0  0
 62180  1  0  0  0  0
 62181  1  0  0  0  0
 63 66  1  0  0  0  0
 63182  1  0  0  0  0
 63183  1  0  0  0  0
 64 68  1  0  0  0  0
 64184  1  0  0  0  0
 64185  1  0  0  0  0
 65 70  1  0  0  0  0
 65186  1  0  0  0  0
 65187  1  0  0  0  0
 66 69  1  0  0  0  0
 66188  1  0  0  0  0
 66189  1  0  0  0  0
 67 71  1  0  0  0  0
 67190  1  0  0  0  0
 67191  1  0  0  0  0
 68 73  1  0  0  0  0
 68192  1  0  0  0  0
 68193  1  0  0  0  0
 69 72  1  0  0  0  0
 69194  1  0  0  0  0
 69195  1  0  0  0  0
 70 74  1  0  0  0  0
 70196  1  0  0  0  0
 70197  1  0  0  0  0
 71 76  1  0  0  0  0
 71198  1  0  0  0  0
 71199  1  0  0  0  0
 72 75  1  0  0  0  0
 72200  1  0  0  0  0
 72201  1  0  0  0  0
 73 77  1  0  0  0  0
 73202  1  0  0  0  0
 73203  1  0  0  0  0
 74 78  1  0  0  0  0
 74204  1  0  0  0  0
 74205  1  0  0  0  0
 75 79  1  0  0  0  0
 75206  1  0  0  0  0
 75207  1  0  0  0  0
 76 80  1  0  0  0  0
 76208  1  0  0  0  0
 76209  1  0  0  0  0
 77 81  1  0  0  0  0
 77210  1  0  0  0  0
 77211  1  0  0  0  0
 78 82  1  0  0  0  0
 78212  1  0  0  0  0
 78213  1  0  0  0  0
 79 83  1  0  0  0  0
 79214  1  0  0  0  0
 79215  1  0  0  0  0
 80 84  1  0  0  0  0
 80216  1  0  0  0  0
 80217  1  0  0  0  0
 81 85  1  0  0  0  0
 81218  1  0  0  0  0
 81219  1  0  0  0  0
 82 86  1  0  0  0  0
 82220  1  0  0  0  0
 82221  1  0  0  0  0
 83 87  1  0  0  0  0
 83222  1  0  0  0  0
 83223  1  0  0  0  0
 84224  1  0  0  0  0
 84225  1  0  0  0  0
 84226  1  0  0  0  0
 85227  1  0  0  0  0
 85228  1  0  0  0  0
 85229  1  0  0  0  0
 86230  1  0  0  0  0
 86231  1  0  0  0  0
 86232  1  0  0  0  0
 87233  1  0  0  0  0
 87234  1  0  0  0  0
 87235  1  0  0  0  0
M  END
> <PUBCHEM_COMPOUND_CID>
6454268

> <PUBCHEM_COMPOUND_CANONICALIZED>
1

> <PUBCHEM_CACTVS_COMPLEXITY>
1470

> <PUBCHEM_CACTVS_HBOND_ACCEPTOR>
9

> <PUBCHEM_CACTVS_HBOND_DONOR>
0

> <PUBCHEM_CACTVS_ROTATABLE_BOND>
74

> <PUBCHEM_CACTVS_SUBSKEYS>
AAADcfB8PAAAAAAAAAAAAAAAAAAAASAAAAAAAAAAAAAAAAAAAAAAGgAAAAAACBSggAICCAAABAAIAACQCAAAAAAAAAAAAAEAAAABABIAAAACAAAFAAACAAHI6KyAAAAAAAAAAAAAAAAAAAAAAAAAAAAAAA==

> <PUBCHEM_IUPAC_OPENEYE_NAME>
[(2R)-2-[(3R,4S)-3,4-di(octadecanoyloxy)tetrahydrofuran-2-yl]-2-octadecanoyloxy-ethyl] octadecanoate

> <PUBCHEM_IUPAC_CAS_NAME>
octadecanoic acid [(2R)-2-[(3R,4S)-3,4-bis(1-oxooctadecoxy)-2-oxolanyl]-2-(1-oxooctadecoxy)ethyl] ester

> <PUBCHEM_IUPAC_NAME_MARKUP>
[(2<I>R</I>)-2-[(3<I>R</I>,4<I>S</I>)-3,4-di(octadecanoyloxy)oxolan-2-yl]-2-octadecanoyloxyethyl] octadecanoate

> <PUBCHEM_IUPAC_NAME>
[(2R)-2-[(3R,4S)-3,4-di(octadecanoyloxy)oxolan-2-yl]-2-octadecanoyloxyethyl] octadecanoate

> <PUBCHEM_IUPAC_SYSTEMATIC_NAME>
[(2R)-2-[(3R,4S)-3,4-di(octadecanoyloxy)oxolan-2-yl]-2-octadecanoyloxy-ethyl] octadecanoate

> <PUBCHEM_IUPAC_TRADITIONAL_NAME>
stearic acid [(2R)-2-[(3R,4S)-3,4-distearoyloxytetrahydrofuran-2-yl]-2-stearoyloxy-ethyl] ester

> <PUBCHEM_IUPAC_INCHI>
InChI=1S/C78H148O9/c1-5-9-13-17-21-25-29-33-37-41-45-49-53-57-61-65-73(79)83-69-71(85-74(80)66-62-58-54-50-46-42-38-34-30-26-22-18-14-10-6-2)77-78(87-76(82)68-64-60-56-52-48-44-40-36-32-28-24-20-16-12-8-4)72(70-84-77)86-75(81)67-63-59-55-51-47-43-39-35-31-27-23-19-15-11-7-3/h71-72,77-78H,5-70H2,1-4H3/t71-,72+,77?,78-/m1/s1

> <PUBCHEM_IUPAC_INCHIKEY>
PZJDVAKEAKYPHG-UROSWEABSA-N

> <PUBCHEM_XLOGP3_AA>
33.3

> <PUBCHEM_EXACT_MASS>
1229.11233629

> <PUBCHEM_MOLECULAR_FORMULA>
C78H148O9

> <PUBCHEM_MOLECULAR_WEIGHT>
1230.0

> <PUBCHEM_SMILES>
CCCCCCCCCCCCCCCCCC(=O)OC[C@H](C1[C@@H]([C@H](CO1)OC(=O)CCCCCCCCCCCCCCCCC)OC(=O)CCCCCCCCCCCCCCCCC)OC(=O)CCCCCCCCCCCCCCCCC

> <PUBCHEM_OPENEYE_CAN_SMILES>
CCCCCCCCCCCCCCCCCC(=O)OCC(C1C(C(CO1)OC(=O)CCCCCCCCCCCCCCCCC)OC(=O)CCCCCCCCCCCCCCCCC)OC(=O)CCCCCCCCCCCCCCCCC

> <PUBCHEM_OPENEYE_ISO_SMILES>
CCCCCCCCCCCCCCCCCC(=O)OC[C@H](C1[C@@H]([C@H](CO1)OC(=O)CCCCCCCCCCCCCCCCC)OC(=O)CCCCCCCCCCCCCCCCC)OC(=O)CCCCCCCCCCCCCCCCC

> <PUBCHEM_CACTVS_TPSA>
114

> <PUBCHEM_MONOISOTOPIC_WEIGHT>
1229.11233629

> <PUBCHEM_TOTAL_CHARGE>
0

> <PUBCHEM_HEAVY_ATOM_COUNT>
87

> <PUBCHEM_ATOM_DEF_STEREO_COUNT>
3

> <PUBCHEM_ATOM_UDEF_STEREO_COUNT>
1

> <PUBCHEM_BOND_DEF_STEREO_COUNT>
0

> <PUBCHEM_BOND_UDEF_STEREO_COUNT>
0

> <PUBCHEM_ISOTOPIC_ATOM_COUNT>
0

> <PUBCHEM_COMPONENT_COUNT>
1

> <PUBCHEM_CACTVS_TAUTO_COUNT>
-1

> <PUBCHEM_COORDINATE_TYPE>
1
5
255

> <PUBCHEM_BONDANNOTATIONS>
10  1  3
11  2  5
12  3  6
13  4  5

$$$$
