64819
  -OEChem-03072501092D

193196  0     0  0  0  0  0  0999 V2000
   11.5000    0.8660    0.0000 O   0  0  0  0  0  0  0  0  0  0  0  0
    9.1340    1.5000    0.0000 O   0  0  0  0  0  0  0  0  0  0  0  0
   10.8660   -1.5000    0.0000 O   0  0  0  0  0  0  0  0  0  0  0  0
    8.5000   -0.8660    0.0000 O   0  0  0  0  0  0  0  0  0  0  0  0
   16.0000    5.1962    0.0000 O   0  0  0  0  0  0  0  0  0  0  0  0
    4.8038    6.0000    0.0000 O   0  0  0  0  0  0  0  0  0  0  0  0
   15.1962   -6.0000    0.0000 O   0  0  0  0  0  0  0  0  0  0  0  0
    4.0000   -5.1962    0.0000 O   0  0  0  0  0  0  0  0  0  0  0  0
   13.0000   -0.0000    0.0000 O   0  0  0  0  0  0  0  0  0  0  0  0
   10.0000    3.0000    0.0000 O   0  0  0  0  0  0  0  0  0  0  0  0
   10.0000   -3.0000    0.0000 O   0  0  0  0  0  0  0  0  0  0  0  0
    7.0000    0.0000    0.0000 O   0  0  0  0  0  0  0  0  0  0  0  0
   10.0000    0.0000    0.0000 C   0  0  0  0  0  0  0  0  0  0  0  0
   14.0000    5.1962    0.0000 C   0  0  0  0  0  0  0  0  0  0  0  0
    6.5359    7.0000    0.0000 C   0  0  0  0  0  0  0  0  0  0  0  0
   13.4641   -7.0000    0.0000 C   0  0  0  0  0  0  0  0  0  0  0  0
    3.0000   -3.4641    0.0000 C   0  0  0  0  0  0  0  0  0  0  0  0
   17.0000    3.4641    0.0000 C   0  0  0  0  0  0  0  0  0  0  0  0
    4.8038    4.0000    0.0000 C   0  0  0  0  0  0  0  0  0  0  0  0
   15.1962   -4.0000    0.0000 C   0  0  0  0  0  0  0  0  0  0  0  0
    6.0000   -5.1962    0.0000 C   0  0  0  0  0  0  0  0  0  0  0  0
   14.5000    4.3301    0.0000 C   0  0  0  0  0  0  0  0  0  0  0  0
    6.5359    6.0000    0.0000 C   0  0  0  0  0  0  0  0  0  0  0  0
   13.4641   -6.0000    0.0000 C   0  0  0  0  0  0  0  0  0  0  0  0
    4.0000   -3.4641    0.0000 C   0  0  0  0  0  0  0  0  0  0  0  0
   16.0000    3.4641    0.0000 C   0  0  0  0  0  0  0  0  0  0  0  0
    5.6699    4.5000    0.0000 C   0  0  0  0  0  0  0  0  0  0  0  0
   14.3301   -4.5000    0.0000 C   0  0  0  0  0  0  0  0  0  0  0  0
    5.5000   -4.3301    0.0000 C   0  0  0  0  0  0  0  0  0  0  0  0
   11.0000    0.0000    0.0000 C   0  0  0  0  0  0  0  0  0  0  0  0
   10.0000    1.0000    0.0000 C   0  0  0  0  0  0  0  0  0  0  0  0
   10.0000   -1.0000    0.0000 C   0  0  0  0  0  0  0  0  0  0  0  0
    9.0000    0.0000    0.0000 C   0  0  0  0  0  0  0  0  0  0  0  0
   15.5000    4.3301    0.0000 C   0  0  0  0  0  0  0  0  0  0  0  0
    5.6699    5.5000    0.0000 C   0  0  0  0  0  0  0  0  0  0  0  0
   14.3301   -5.5000    0.0000 C   0  0  0  0  0  0  0  0  0  0  0  0
    4.5000   -4.3301    0.0000 C   0  0  0  0  0  0  0  0  0  0  0  0
   14.5000    2.5981    0.0000 C   0  0  0  0  0  0  0  0  0  0  0  0
    7.4019    4.5000    0.0000 C   0  0  0  0  0  0  0  0  0  0  0  0
   12.5981   -4.5000    0.0000 C   0  0  0  0  0  0  0  0  0  0  0  0
    5.5000   -2.5981    0.0000 C   0  0  0  0  0  0  0  0  0  0  0  0
   14.0000    3.4641    0.0000 C   0  0  0  0  0  0  0  0  0  0  0  0
    7.4019    5.5000    0.0000 C   0  0  0  0  0  0  0  0  0  0  0  0
   12.5981   -5.5000    0.0000 C   0  0  0  0  0  0  0  0  0  0  0  0
    4.5000   -2.5981    0.0000 C   0  0  0  0  0  0  0  0  0  0  0  0
   15.5000    2.5981    0.0000 C   0  0  0  0  0  0  0  0  0  0  0  0
    6.5359    4.0000    0.0000 C   0  0  0  0  0  0  0  0  0  0  0  0
   13.4641   -4.0000    0.0000 C   0  0  0  0  0  0  0  0  0  0  0  0
    6.0000   -3.4641    0.0000 C   0  0  0  0  0  0  0  0  0  0  0  0
   14.0000    1.7320    0.0000 C   0  0  0  0  0  0  0  0  0  0  0  0
    8.2680    4.0000    0.0000 C   0  0  0  0  0  0  0  0  0  0  0  0
   11.7321   -4.0000    0.0000 C   0  0  0  0  0  0  0  0  0  0  0  0
    6.0000   -1.7320    0.0000 C   0  0  0  0  0  0  0  0  0  0  0  0
   13.5000    6.0622    0.0000 C   0  0  0  0  0  0  0  0  0  0  0  0
   13.1340    4.6962    0.0000 C   0  0  0  0  0  0  0  0  0  0  0  0
   14.8660    5.6962    0.0000 C   0  0  0  0  0  0  0  0  0  0  0  0
    6.5359    8.0000    0.0000 C   0  0  0  0  0  0  0  0  0  0  0  0
    7.5359    7.0000    0.0000 C   0  0  0  0  0  0  0  0  0  0  0  0
    5.5359    7.0000    0.0000 C   0  0  0  0  0  0  0  0  0  0  0  0
   13.4641   -8.0000    0.0000 C   0  0  0  0  0  0  0  0  0  0  0  0
   12.4641   -7.0000    0.0000 C   0  0  0  0  0  0  0  0  0  0  0  0
   14.4641   -7.0000    0.0000 C   0  0  0  0  0  0  0  0  0  0  0  0
    2.0000   -3.4641    0.0000 C   0  0  0  0  0  0  0  0  0  0  0  0
    3.0000   -2.4641    0.0000 C   0  0  0  0  0  0  0  0  0  0  0  0
    3.0000   -4.4641    0.0000 C   0  0  0  0  0  0  0  0  0  0  0  0
   18.0000    3.4641    0.0000 C   0  0  0  0  0  0  0  0  0  0  0  0
   17.0000    2.4641    0.0000 C   0  0  0  0  0  0  0  0  0  0  0  0
   17.0000    4.4641    0.0000 C   0  0  0  0  0  0  0  0  0  0  0  0
    3.9378    3.5000    0.0000 C   0  0  0  0  0  0  0  0  0  0  0  0
    5.3038    3.1340    0.0000 C   0  0  0  0  0  0  0  0  0  0  0  0
    4.3038    4.8660    0.0000 C   0  0  0  0  0  0  0  0  0  0  0  0
   16.0622   -3.5000    0.0000 C   0  0  0  0  0  0  0  0  0  0  0  0
   14.6962   -3.1340    0.0000 C   0  0  0  0  0  0  0  0  0  0  0  0
   15.6962   -4.8660    0.0000 C   0  0  0  0  0  0  0  0  0  0  0  0
    6.5000   -6.0622    0.0000 C   0  0  0  0  0  0  0  0  0  0  0  0
    6.8660   -4.6962    0.0000 C   0  0  0  0  0  0  0  0  0  0  0  0
    5.1340   -5.6962    0.0000 C   0  0  0  0  0  0  0  0  0  0  0  0
   13.0000    1.7320    0.0000 C   0  0  0  0  0  0  0  0  0  0  0  0
    8.2680    3.0000    0.0000 C   0  0  0  0  0  0  0  0  0  0  0  0
   11.7321   -3.0000    0.0000 C   0  0  0  0  0  0  0  0  0  0  0  0
    7.0000   -1.7320    0.0000 C   0  0  0  0  0  0  0  0  0  0  0  0
   12.5000    0.8660    0.0000 C   0  0  0  0  0  0  0  0  0  0  0  0
    9.1340    2.5000    0.0000 C   0  0  0  0  0  0  0  0  0  0  0  0
   10.8660   -2.5000    0.0000 C   0  0  0  0  0  0  0  0  0  0  0  0
    7.5000   -0.8660    0.0000 C   0  0  0  0  0  0  0  0  0  0  0  0
   10.8923   -0.6106    0.0000 H   0  0  0  0  0  0  0  0  0  0  0  0
   11.5826   -0.2121    0.0000 H   0  0  0  0  0  0  0  0  0  0  0  0
   10.6106    0.8923    0.0000 H   0  0  0  0  0  0  0  0  0  0  0  0
   10.2121    1.5826    0.0000 H   0  0  0  0  0  0  0  0  0  0  0  0
    9.3894   -0.8923    0.0000 H   0  0  0  0  0  0  0  0  0  0  0  0
    9.7880   -1.5826    0.0000 H   0  0  0  0  0  0  0  0  0  0  0  0
    9.1077    0.6106    0.0000 H   0  0  0  0  0  0  0  0  0  0  0  0
    8.4174    0.2121    0.0000 H   0  0  0  0  0  0  0  0  0  0  0  0
   13.3800    3.4641    0.0000 H   0  0  0  0  0  0  0  0  0  0  0  0
    7.9389    5.8100    0.0000 H   0  0  0  0  0  0  0  0  0  0  0  0
   12.0611   -5.8100    0.0000 H   0  0  0  0  0  0  0  0  0  0  0  0
    4.1900   -2.0611    0.0000 H   0  0  0  0  0  0  0  0  0  0  0  0
   15.8100    2.0611    0.0000 H   0  0  0  0  0  0  0  0  0  0  0  0
    6.5359    3.3800    0.0000 H   0  0  0  0  0  0  0  0  0  0  0  0
   13.4641   -3.3800    0.0000 H   0  0  0  0  0  0  0  0  0  0  0  0
    6.6200   -3.4641    0.0000 H   0  0  0  0  0  0  0  0  0  0  0  0
   13.8923    1.1215    0.0000 H   0  0  0  0  0  0  0  0  0  0  0  0
   14.5826    1.5200    0.0000 H   0  0  0  0  0  0  0  0  0  0  0  0
    8.8785    3.8923    0.0000 H   0  0  0  0  0  0  0  0  0  0  0  0
    8.4800    4.5826    0.0000 H   0  0  0  0  0  0  0  0  0  0  0  0
   11.1215   -3.8923    0.0000 H   0  0  0  0  0  0  0  0  0  0  0  0
   11.5200   -4.5826    0.0000 H   0  0  0  0  0  0  0  0  0  0  0  0
    6.1077   -1.1215    0.0000 H   0  0  0  0  0  0  0  0  0  0  0  0
    5.4174   -1.5200    0.0000 H   0  0  0  0  0  0  0  0  0  0  0  0
   14.0369    6.3722    0.0000 H   0  0  0  0  0  0  0  0  0  0  0  0
   13.1900    6.5991    0.0000 H   0  0  0  0  0  0  0  0  0  0  0  0
   12.9631    5.7522    0.0000 H   0  0  0  0  0  0  0  0  0  0  0  0
   12.8240    5.2331    0.0000 H   0  0  0  0  0  0  0  0  0  0  0  0
   12.5970    4.3862    0.0000 H   0  0  0  0  0  0  0  0  0  0  0  0
   13.4440    4.1592    0.0000 H   0  0  0  0  0  0  0  0  0  0  0  0
   15.1760    5.1592    0.0000 H   0  0  0  0  0  0  0  0  0  0  0  0
   15.4030    6.0062    0.0000 H   0  0  0  0  0  0  0  0  0  0  0  0
   14.5560    6.2331    0.0000 H   0  0  0  0  0  0  0  0  0  0  0  0
    7.1559    8.0000    0.0000 H   0  0  0  0  0  0  0  0  0  0  0  0
    6.5359    8.6200    0.0000 H   0  0  0  0  0  0  0  0  0  0  0  0
    5.9159    8.0000    0.0000 H   0  0  0  0  0  0  0  0  0  0  0  0
    7.5359    6.3800    0.0000 H   0  0  0  0  0  0  0  0  0  0  0  0
    8.1559    7.0000    0.0000 H   0  0  0  0  0  0  0  0  0  0  0  0
    7.5359    7.6200    0.0000 H   0  0  0  0  0  0  0  0  0  0  0  0
    5.5359    7.6200    0.0000 H   0  0  0  0  0  0  0  0  0  0  0  0
    4.9159    7.0000    0.0000 H   0  0  0  0  0  0  0  0  0  0  0  0
    5.5359    6.3800    0.0000 H   0  0  0  0  0  0  0  0  0  0  0  0
   12.8441   -8.0000    0.0000 H   0  0  0  0  0  0  0  0  0  0  0  0
   13.4641   -8.6200    0.0000 H   0  0  0  0  0  0  0  0  0  0  0  0
   14.0841   -8.0000    0.0000 H   0  0  0  0  0  0  0  0  0  0  0  0
   12.4641   -6.3800    0.0000 H   0  0  0  0  0  0  0  0  0  0  0  0
   11.8441   -7.0000    0.0000 H   0  0  0  0  0  0  0  0  0  0  0  0
   12.4641   -7.6200    0.0000 H   0  0  0  0  0  0  0  0  0  0  0  0
   14.4641   -7.6200    0.0000 H   0  0  0  0  0  0  0  0  0  0  0  0
   15.0841   -7.0000    0.0000 H   0  0  0  0  0  0  0  0  0  0  0  0
   14.4641   -6.3800    0.0000 H   0  0  0  0  0  0  0  0  0  0  0  0
    2.0000   -2.8441    0.0000 H   0  0  0  0  0  0  0  0  0  0  0  0
    1.3800   -3.4641    0.0000 H   0  0  0  0  0  0  0  0  0  0  0  0
    2.0000   -4.0841    0.0000 H   0  0  0  0  0  0  0  0  0  0  0  0
    3.6200   -2.4641    0.0000 H   0  0  0  0  0  0  0  0  0  0  0  0
    3.0000   -1.8441    0.0000 H   0  0  0  0  0  0  0  0  0  0  0  0
    2.3800   -2.4641    0.0000 H   0  0  0  0  0  0  0  0  0  0  0  0
    2.3800   -4.4641    0.0000 H   0  0  0  0  0  0  0  0  0  0  0  0
    3.0000   -5.0841    0.0000 H   0  0  0  0  0  0  0  0  0  0  0  0
    3.6200   -4.4641    0.0000 H   0  0  0  0  0  0  0  0  0  0  0  0
   18.0000    2.8441    0.0000 H   0  0  0  0  0  0  0  0  0  0  0  0
   18.6200    3.4641    0.0000 H   0  0  0  0  0  0  0  0  0  0  0  0
   18.0000    4.0841    0.0000 H   0  0  0  0  0  0  0  0  0  0  0  0
   16.3800    2.4641    0.0000 H   0  0  0  0  0  0  0  0  0  0  0  0
   17.0000    1.8441    0.0000 H   0  0  0  0  0  0  0  0  0  0  0  0
   17.6200    2.4641    0.0000 H   0  0  0  0  0  0  0  0  0  0  0  0
   17.6200    4.4641    0.0000 H   0  0  0  0  0  0  0  0  0  0  0  0
   17.0000    5.0841    0.0000 H   0  0  0  0  0  0  0  0  0  0  0  0
   16.3800    4.4641    0.0000 H   0  0  0  0  0  0  0  0  0  0  0  0
    3.6278    4.0369    0.0000 H   0  0  0  0  0  0  0  0  0  0  0  0
    3.4009    3.1900    0.0000 H   0  0  0  0  0  0  0  0  0  0  0  0
    4.2478    2.9631    0.0000 H   0  0  0  0  0  0  0  0  0  0  0  0
    4.7669    2.8240    0.0000 H   0  0  0  0  0  0  0  0  0  0  0  0
    5.6138    2.5970    0.0000 H   0  0  0  0  0  0  0  0  0  0  0  0
    5.8408    3.4440    0.0000 H   0  0  0  0  0  0  0  0  0  0  0  0
    4.8408    5.1760    0.0000 H   0  0  0  0  0  0  0  0  0  0  0  0
    3.9938    5.4030    0.0000 H   0  0  0  0  0  0  0  0  0  0  0  0
    3.7669    4.5560    0.0000 H   0  0  0  0  0  0  0  0  0  0  0  0
   16.3722   -4.0369    0.0000 H   0  0  0  0  0  0  0  0  0  0  0  0
   16.5991   -3.1900    0.0000 H   0  0  0  0  0  0  0  0  0  0  0  0
   15.7522   -2.9631    0.0000 H   0  0  0  0  0  0  0  0  0  0  0  0
   15.2331   -2.8240    0.0000 H   0  0  0  0  0  0  0  0  0  0  0  0
   14.3862   -2.5970    0.0000 H   0  0  0  0  0  0  0  0  0  0  0  0
   14.1592   -3.4440    0.0000 H   0  0  0  0  0  0  0  0  0  0  0  0
   15.1592   -5.1760    0.0000 H   0  0  0  0  0  0  0  0  0  0  0  0
   16.0062   -5.4030    0.0000 H   0  0  0  0  0  0  0  0  0  0  0  0
   16.2331   -4.5560    0.0000 H   0  0  0  0  0  0  0  0  0  0  0  0
    5.9631   -6.3722    0.0000 H   0  0  0  0  0  0  0  0  0  0  0  0
    6.8100   -6.5991    0.0000 H   0  0  0  0  0  0  0  0  0  0  0  0
    7.0369   -5.7522    0.0000 H   0  0  0  0  0  0  0  0  0  0  0  0
    7.1760   -5.2331    0.0000 H   0  0  0  0  0  0  0  0  0  0  0  0
    7.4030   -4.3862    0.0000 H   0  0  0  0  0  0  0  0  0  0  0  0
    6.5560   -4.1592    0.0000 H   0  0  0  0  0  0  0  0  0  0  0  0
    4.8240   -5.1592    0.0000 H   0  0  0  0  0  0  0  0  0  0  0  0
    4.5970   -6.0062    0.0000 H   0  0  0  0  0  0  0  0  0  0  0  0
    5.4440   -6.2331    0.0000 H   0  0  0  0  0  0  0  0  0  0  0  0
   13.1077    2.3426    0.0000 H   0  0  0  0  0  0  0  0  0  0  0  0
   12.4174    1.9441    0.0000 H   0  0  0  0  0  0  0  0  0  0  0  0
    7.6574    3.1077    0.0000 H   0  0  0  0  0  0  0  0  0  0  0  0
    8.0559    2.4174    0.0000 H   0  0  0  0  0  0  0  0  0  0  0  0
   12.3426   -3.1077    0.0000 H   0  0  0  0  0  0  0  0  0  0  0  0
   11.9441   -2.4174    0.0000 H   0  0  0  0  0  0  0  0  0  0  0  0
    6.8923   -2.3426    0.0000 H   0  0  0  0  0  0  0  0  0  0  0  0
    7.5826   -1.9441    0.0000 H   0  0  0  0  0  0  0  0  0  0  0  0
   16.6200    5.1962    0.0000 H   0  0  0  0  0  0  0  0  0  0  0  0
    4.8038    6.6200    0.0000 H   0  0  0  0  0  0  0  0  0  0  0  0
   15.1962   -6.6200    0.0000 H   0  0  0  0  0  0  0  0  0  0  0  0
    3.3800   -5.1962    0.0000 H   0  0  0  0  0  0  0  0  0  0  0  0
  1 30  1  0  0  0  0
  1 82  1  0  0  0  0
  2 31  1  0  0  0  0
  2 83  1  0  0  0  0
  3 32  1  0  0  0  0
  3 84  1  0  0  0  0
  4 33  1  0  0  0  0
  4 85  1  0  0  0  0
  5 34  1  0  0  0  0
  5190  1  0  0  0  0
  6 35  1  0  0  0  0
  6191  1  0  0  0  0
  7 36  1  0  0  0  0
  7192  1  0  0  0  0
  8 37  1  0  0  0  0
  8193  1  0  0  0  0
  9 82  2  0  0  0  0
 10 83  2  0  0  0  0
 11 84  2  0  0  0  0
 12 85  2  0  0  0  0
 13 30  1  0  0  0  0
 13 31  1  0  0  0  0
 13 32  1  0  0  0  0
 13 33  1  0  0  0  0
 14 22  1  0  0  0  0
 14 54  1  0  0  0  0
 14 55  1  0  0  0  0
 14 56  1  0  0  0  0
 15 23  1  0  0  0  0
 15 57  1  0  0  0  0
 15 58  1  0  0  0  0
 15 59  1  0  0  0  0
 16 24  1  0  0  0  0
 16 60  1  0  0  0  0
 16 61  1  0  0  0  0
 16 62  1  0  0  0  0
 17 25  1  0  0  0  0
 17 63  1  0  0  0  0
 17 64  1  0  0  0  0
 17 65  1  0  0  0  0
 18 26  1  0  0  0  0
 18 66  1  0  0  0  0
 18 67  1  0  0  0  0
 18 68  1  0  0  0  0
 19 27  1  0  0  0  0
 19 69  1  0  0  0  0
 19 70  1  0  0  0  0
 19 71  1  0  0  0  0
 20 28  1  0  0  0  0
 20 72  1  0  0  0  0
 20 73  1  0  0  0  0
 20 74  1  0  0  0  0
 21 29  1  0  0  0  0
 21 75  1  0  0  0  0
 21 76  1  0  0  0  0
 21 77  1  0  0  0  0
 22 34  2  0  0  0  0
 22 42  1  0  0  0  0
 23 35  2  0  0  0  0
 23 43  1  0  0  0  0
 24 36  2  0  0  0  0
 24 44  1  0  0  0  0
 25 37  2  0  0  0  0
 25 45  1  0  0  0  0
 26 34  1  0  0  0  0
 26 46  2  0  0  0  0
 27 35  1  0  0  0  0
 27 47  2  0  0  0  0
 28 36  1  0  0  0  0
 28 48  2  0  0  0  0
 29 37  1  0  0  0  0
 29 49  2  0  0  0  0
 30 86  1  0  0  0  0
 30 87  1  0  0  0  0
 31 88  1  0  0  0  0
 31 89  1  0  0  0  0
 32 90  1  0  0  0  0
 32 91  1  0  0  0  0
 33 92  1  0  0  0  0
 33 93  1  0  0  0  0
 38 42  2  0  0  0  0
 38 46  1  0  0  0  0
 38 50  1  0  0  0  0
 39 43  2  0  0  0  0
 39 47  1  0  0  0  0
 39 51  1  0  0  0  0
 40 44  2  0  0  0  0
 40 48  1  0  0  0  0
 40 52  1  0  0  0  0
 41 45  2  0  0  0  0
 41 49  1  0  0  0  0
 41 53  1  0  0  0  0
 42 94  1  0  0  0  0
 43 95  1  0  0  0  0
 44 96  1  0  0  0  0
 45 97  1  0  0  0  0
 46 98  1  0  0  0  0
 47 99  1  0  0  0  0
 48100  1  0  0  0  0
 49101  1  0  0  0  0
 50 78  1  0  0  0  0
 50102  1  0  0  0  0
 50103  1  0  0  0  0
 51 79  1  0  0  0  0
 51104  1  0  0  0  0
 51105  1  0  0  0  0
 52 80  1  0  0  0  0
 52106  1  0  0  0  0
 52107  1  0  0  0  0
 53 81  1  0  0  0  0
 53108  1  0  0  0  0
 53109  1  0  0  0  0
 54110  1  0  0  0  0
 54111  1  0  0  0  0
 54112  1  0  0  0  0
 55113  1  0  0  0  0
 55114  1  0  0  0  0
 55115  1  0  0  0  0
 56116  1  0  0  0  0
 56117  1  0  0  0  0
 56118  1  0  0  0  0
 57119  1  0  0  0  0
 57120  1  0  0  0  0
 57121  1  0  0  0  0
 58122  1  0  0  0  0
 58123  1  0  0  0  0
 58124  1  0  0  0  0
 59125  1  0  0  0  0
 59126  1  0  0  0  0
 59127  1  0  0  0  0
 60128  1  0  0  0  0
 60129  1  0  0  0  0
 60130  1  0  0  0  0
 61131  1  0  0  0  0
 61132  1  0  0  0  0
 61133  1  0  0  0  0
 62134  1  0  0  0  0
 62135  1  0  0  0  0
 62136  1  0  0  0  0
 63137  1  0  0  0  0
 63138  1  0  0  0  0
 63139  1  0  0  0  0
 64140  1  0  0  0  0
 64141  1  0  0  0  0
 64142  1  0  0  0  0
 65143  1  0  0  0  0
 65144  1  0  0  0  0
 65145  1  0  0  0  0
 66146  1  0  0  0  0
 66147  1  0  0  0  0
 66148  1  0  0  0  0
 67149  1  0  0  0  0
 67150  1  0  0  0  0
 67151  1  0  0  0  0
 68152  1  0  0  0  0
 68153  1  0  0  0  0
 68154  1  0  0  0  0
 69155  1  0  0  0  0
 69156  1  0  0  0  0
 69157  1  0  0  0  0
 70158  1  0  0  0  0
 70159  1  0  0  0  0
 70160  1  0  0  0  0
 71161  1  0  0  0  0
 71162  1  0  0  0  0
 71163  1  0  0  0  0
 72164  1  0  0  0  0
 72165  1  0  0  0  0
 72166  1  0  0  0  0
 73167  1  0  0  0  0
 73168  1  0  0  0  0
 73169  1  0  0  0  0
 74170  1  0  0  0  0
 74171  1  0  0  0  0
 74172  1  0  0  0  0
 75173  1  0  0  0  0
 75174  1  0  0  0  0
 75175  1  0  0  0  0
 76176  1  0  0  0  0
 76177  1  0  0  0  0
 76178  1  0  0  0  0
 77179  1  0  0  0  0
 77180  1  0  0  0  0
 77181  1  0  0  0  0
 78 82  1  0  0  0  0
 78182  1  0  0  0  0
 78183  1  0  0  0  0
 79 83  1  0  0  0  0
 79184  1  0  0  0  0
 79185  1  0  0  0  0
 80 84  1  0  0  0  0
 80186  1  0  0  0  0
 80187  1  0  0  0  0
 81 85  1  0  0  0  0
 81188  1  0  0  0  0
 81189  1  0  0  0  0
M  END
> <PUBCHEM_COMPOUND_CID>
64819

> <PUBCHEM_COMPOUND_CANONICALIZED>
1

> <PUBCHEM_CACTVS_COMPLEXITY>
1730

> <PUBCHEM_CACTVS_HBOND_ACCEPTOR>
12

> <PUBCHEM_CACTVS_HBOND_DONOR>
4

> <PUBCHEM_CACTVS_ROTATABLE_BOND>
32

> <PUBCHEM_CACTVS_SUBSKEYS>
AAADcfB8PAAAAAAAAAAAAAAAAAAAAAAAAAAwYMGAAAAAAAABVAAAGgAACAAADgSgmAIyDoAABgCIAiDSCAACAAAgIAAAiAEECIgIJjKCERKCcAAlwBEImAeIyOCPoAACAAAIAABAAAQAABAAAAAAAAAAAA==

> <PUBCHEM_IUPAC_OPENEYE_NAME>
[3-[3-(3,5-ditert-butyl-4-hydroxy-phenyl)propanoyloxy]-2,2-bis[3-(3,5-ditert-butyl-4-hydroxy-phenyl)propanoyloxymethyl]propyl] 3-(3,5-ditert-butyl-4-hydroxy-phenyl)propanoate

> <PUBCHEM_IUPAC_CAS_NAME>
3-(3,5-ditert-butyl-4-hydroxyphenyl)propanoic acid [3-[3-(3,5-ditert-butyl-4-hydroxyphenyl)-1-oxopropoxy]-2,2-bis[[3-(3,5-ditert-butyl-4-hydroxyphenyl)-1-oxopropoxy]methyl]propyl] ester

> <PUBCHEM_IUPAC_NAME_MARKUP>
[3-[3-(3,5-di<I>tert</I>-butyl-4-hydroxyphenyl)propanoyloxy]-2,2-bis[3-(3,5-di<I>tert</I>-butyl-4-hydroxyphenyl)propanoyloxymethyl]propyl] 3-(3,5-di<I>tert</I>-butyl-4-hydroxyphenyl)propanoate

> <PUBCHEM_IUPAC_NAME>
[3-[3-(3,5-ditert-butyl-4-hydroxyphenyl)propanoyloxy]-2,2-bis[3-(3,5-ditert-butyl-4-hydroxyphenyl)propanoyloxymethyl]propyl] 3-(3,5-ditert-butyl-4-hydroxyphenyl)propanoate

> <PUBCHEM_IUPAC_SYSTEMATIC_NAME>
[3-[3-(3,5-ditert-butyl-4-oxidanyl-phenyl)propanoyloxy]-2,2-bis[3-(3,5-ditert-butyl-4-oxidanyl-phenyl)propanoyloxymethyl]propyl] 3-(3,5-ditert-butyl-4-oxidanyl-phenyl)propanoate

> <PUBCHEM_IUPAC_TRADITIONAL_NAME>
3-(3,5-ditert-butyl-4-hydroxy-phenyl)propionic acid [3-[3-(3,5-ditert-butyl-4-hydroxy-phenyl)propanoyloxy]-2,2-bis[3-(3,5-ditert-butyl-4-hydroxy-phenyl)propanoyloxymethyl]propyl] ester

> <PUBCHEM_IUPAC_INCHI>
InChI=1S/C73H108O12/c1-65(2,3)49-33-45(34-50(61(49)78)66(4,5)6)25-29-57(74)82-41-73(42-83-58(75)30-26-46-35-51(67(7,8)9)62(79)52(36-46)68(10,11)12,43-84-59(76)31-27-47-37-53(69(13,14)15)63(80)54(38-47)70(16,17)18)44-85-60(77)32-28-48-39-55(71(19,20)21)64(81)56(40-48)72(22,23)24/h33-40,78-81H,25-32,41-44H2,1-24H3

> <PUBCHEM_IUPAC_INCHIKEY>
BGYHLZZASRKEJE-UHFFFAOYSA-N

> <PUBCHEM_XLOGP3_AA>
19.4

> <PUBCHEM_EXACT_MASS>
1176.78407888

> <PUBCHEM_MOLECULAR_FORMULA>
C73H108O12

> <PUBCHEM_MOLECULAR_WEIGHT>
1177.6

> <PUBCHEM_SMILES>
CC(C)(C)C1=CC(=CC(=C1O)C(C)(C)C)CCC(=O)OCC(COC(=O)CCC2=CC(=C(C(=C2)C(C)(C)C)O)C(C)(C)C)(COC(=O)CCC3=CC(=C(C(=C3)C(C)(C)C)O)C(C)(C)C)COC(=O)CCC4=CC(=C(C(=C4)C(C)(C)C)O)C(C)(C)C

> <PUBCHEM_OPENEYE_CAN_SMILES>
CC(C)(C)C1=CC(=CC(=C1O)C(C)(C)C)CCC(=O)OCC(COC(=O)CCC2=CC(=C(C(=C2)C(C)(C)C)O)C(C)(C)C)(COC(=O)CCC3=CC(=C(C(=C3)C(C)(C)C)O)C(C)(C)C)COC(=O)CCC4=CC(=C(C(=C4)C(C)(C)C)O)C(C)(C)C

> <PUBCHEM_OPENEYE_ISO_SMILES>
CC(C)(C)C1=CC(=CC(=C1O)C(C)(C)C)CCC(=O)OCC(COC(=O)CCC2=CC(=C(C(=C2)C(C)(C)C)O)C(C)(C)C)(COC(=O)CCC3=CC(=C(C(=C3)C(C)(C)C)O)C(C)(C)C)COC(=O)CCC4=CC(=C(C(=C4)C(C)(C)C)O)C(C)(C)C

> <PUBCHEM_CACTVS_TPSA>
186

> <PUBCHEM_MONOISOTOPIC_WEIGHT>
1176.78407888

> <PUBCHEM_TOTAL_CHARGE>
0

> <PUBCHEM_HEAVY_ATOM_COUNT>
85

> <PUBCHEM_ATOM_DEF_STEREO_COUNT>
0

> <PUBCHEM_ATOM_UDEF_STEREO_COUNT>
0

> <PUBCHEM_BOND_DEF_STEREO_COUNT>
0

> <PUBCHEM_BOND_UDEF_STEREO_COUNT>
0

> <PUBCHEM_ISOTOPIC_ATOM_COUNT>
0

> <PUBCHEM_COMPONENT_COUNT>
1

> <PUBCHEM_CACTVS_TAUTO_COUNT>
-1

> <PUBCHEM_COORDINATE_TYPE>
1
5
255

> <PUBCHEM_BONDANNOTATIONS>
22  34  8
22  42  8
23  35  8
23  43  8
24  36  8
24  44  8
25  37  8
25  45  8
26  34  8
26  46  8
27  35  8
27  47  8
28  36  8
28  48  8
29  37  8
29  49  8
38  42  8
38  46  8
39  43  8
39  47  8
40  44  8
40  48  8
41  45  8
41  49  8

$$$$
