64883
  -OEChem-04042513082D

103104  0     0  0  0  0  0  0999 V2000
    8.9282    0.1550    0.0000 S   0  0  0  0  0  0  0  0  0  0  0  0
   11.5263   -8.3450    0.0000 O   0  0  0  0  0  0  0  0  0  0  0  0
    2.8660    6.6550    0.0000 O   0  0  0  0  0  0  0  0  0  0  0  0
    9.7942   -2.3450    0.0000 O   0  0  0  0  0  0  0  0  0  0  0  0
    7.1962    2.1550    0.0000 O   0  0  0  0  0  0  0  0  0  0  0  0
   11.5263   -2.3450    0.0000 O   0  0  0  0  0  0  0  0  0  0  0  0
    8.0622    3.6550    0.0000 O   0  0  0  0  0  0  0  0  0  0  0  0
   13.2583   -7.3450    0.0000 C   0  0  0  0  0  0  0  0  0  0  0  0
    4.5981    7.6550    0.0000 C   0  0  0  0  0  0  0  0  0  0  0  0
    9.7942   -7.3450    0.0000 C   0  0  0  0  0  0  0  0  0  0  0  0
    2.8660    4.6550    0.0000 C   0  0  0  0  0  0  0  0  0  0  0  0
   12.3923   -6.8450    0.0000 C   0  0  0  0  0  0  0  0  0  0  0  0
    4.5981    6.6550    0.0000 C   0  0  0  0  0  0  0  0  0  0  0  0
   10.6603   -6.8450    0.0000 C   0  0  0  0  0  0  0  0  0  0  0  0
    3.7320    5.1550    0.0000 C   0  0  0  0  0  0  0  0  0  0  0  0
   11.5263   -7.3450    0.0000 C   0  0  0  0  0  0  0  0  0  0  0  0
    3.7320    6.1550    0.0000 C   0  0  0  0  0  0  0  0  0  0  0  0
   11.5263   -5.3450    0.0000 C   0  0  0  0  0  0  0  0  0  0  0  0
    5.4641    5.1550    0.0000 C   0  0  0  0  0  0  0  0  0  0  0  0
   12.3923   -5.8450    0.0000 C   0  0  0  0  0  0  0  0  0  0  0  0
    5.4641    6.1550    0.0000 C   0  0  0  0  0  0  0  0  0  0  0  0
   10.6603   -5.8450    0.0000 C   0  0  0  0  0  0  0  0  0  0  0  0
    4.5981    4.6550    0.0000 C   0  0  0  0  0  0  0  0  0  0  0  0
   14.1244   -7.8450    0.0000 C   0  0  0  0  0  0  0  0  0  0  0  0
   13.7583   -6.4790    0.0000 C   0  0  0  0  0  0  0  0  0  0  0  0
   12.7583   -8.2110    0.0000 C   0  0  0  0  0  0  0  0  0  0  0  0
    4.5981    8.6550    0.0000 C   0  0  0  0  0  0  0  0  0  0  0  0
    5.5981    7.6550    0.0000 C   0  0  0  0  0  0  0  0  0  0  0  0
    3.5981    7.6550    0.0000 C   0  0  0  0  0  0  0  0  0  0  0  0
    8.9282   -7.8450    0.0000 C   0  0  0  0  0  0  0  0  0  0  0  0
    9.2942   -6.4790    0.0000 C   0  0  0  0  0  0  0  0  0  0  0  0
   10.2942   -8.2110    0.0000 C   0  0  0  0  0  0  0  0  0  0  0  0
    2.0000    4.1550    0.0000 C   0  0  0  0  0  0  0  0  0  0  0  0
    3.3660    3.7890    0.0000 C   0  0  0  0  0  0  0  0  0  0  0  0
    2.3660    5.5210    0.0000 C   0  0  0  0  0  0  0  0  0  0  0  0
   11.5263   -4.3450    0.0000 C   0  0  0  0  0  0  0  0  0  0  0  0
    6.3301    4.6550    0.0000 C   0  0  0  0  0  0  0  0  0  0  0  0
   10.6603   -3.8450    0.0000 C   0  0  0  0  0  0  0  0  0  0  0  0
    6.3301    3.6550    0.0000 C   0  0  0  0  0  0  0  0  0  0  0  0
   10.6603   -2.8450    0.0000 C   0  0  0  0  0  0  0  0  0  0  0  0
    7.1962    3.1550    0.0000 C   0  0  0  0  0  0  0  0  0  0  0  0
    9.7942   -1.3450    0.0000 C   0  0  0  0  0  0  0  0  0  0  0  0
    8.0622    1.6550    0.0000 C   0  0  0  0  0  0  0  0  0  0  0  0
    8.9282   -0.8450    0.0000 C   0  0  0  0  0  0  0  0  0  0  0  0
    8.0622    0.6550    0.0000 C   0  0  0  0  0  0  0  0  0  0  0  0
   12.9292   -5.5350    0.0000 H   0  0  0  0  0  0  0  0  0  0  0  0
    6.0010    6.4650    0.0000 H   0  0  0  0  0  0  0  0  0  0  0  0
   10.1233   -5.5350    0.0000 H   0  0  0  0  0  0  0  0  0  0  0  0
    4.5981    4.0350    0.0000 H   0  0  0  0  0  0  0  0  0  0  0  0
   13.8144   -8.3819    0.0000 H   0  0  0  0  0  0  0  0  0  0  0  0
   14.6613   -8.1550    0.0000 H   0  0  0  0  0  0  0  0  0  0  0  0
   14.4344   -7.3081    0.0000 H   0  0  0  0  0  0  0  0  0  0  0  0
   14.2953   -6.7890    0.0000 H   0  0  0  0  0  0  0  0  0  0  0  0
   14.0683   -5.9420    0.0000 H   0  0  0  0  0  0  0  0  0  0  0  0
   13.2214   -6.1690    0.0000 H   0  0  0  0  0  0  0  0  0  0  0  0
   12.2214   -7.9010    0.0000 H   0  0  0  0  0  0  0  0  0  0  0  0
   12.4483   -8.7480    0.0000 H   0  0  0  0  0  0  0  0  0  0  0  0
   13.2953   -8.5210    0.0000 H   0  0  0  0  0  0  0  0  0  0  0  0
    5.2181    8.6550    0.0000 H   0  0  0  0  0  0  0  0  0  0  0  0
    4.5981    9.2750    0.0000 H   0  0  0  0  0  0  0  0  0  0  0  0
    3.9781    8.6550    0.0000 H   0  0  0  0  0  0  0  0  0  0  0  0
    5.5981    7.0350    0.0000 H   0  0  0  0  0  0  0  0  0  0  0  0
    6.2181    7.6550    0.0000 H   0  0  0  0  0  0  0  0  0  0  0  0
    5.5981    8.2750    0.0000 H   0  0  0  0  0  0  0  0  0  0  0  0
    3.5981    8.2750    0.0000 H   0  0  0  0  0  0  0  0  0  0  0  0
    2.9781    7.6550    0.0000 H   0  0  0  0  0  0  0  0  0  0  0  0
    3.5981    7.0350    0.0000 H   0  0  0  0  0  0  0  0  0  0  0  0
    8.6182   -7.3081    0.0000 H   0  0  0  0  0  0  0  0  0  0  0  0
    8.3913   -8.1550    0.0000 H   0  0  0  0  0  0  0  0  0  0  0  0
    9.2382   -8.3819    0.0000 H   0  0  0  0  0  0  0  0  0  0  0  0
    9.8312   -6.1690    0.0000 H   0  0  0  0  0  0  0  0  0  0  0  0
    8.9842   -5.9420    0.0000 H   0  0  0  0  0  0  0  0  0  0  0  0
    8.7573   -6.7890    0.0000 H   0  0  0  0  0  0  0  0  0  0  0  0
    9.7573   -8.5210    0.0000 H   0  0  0  0  0  0  0  0  0  0  0  0
   10.6042   -8.7480    0.0000 H   0  0  0  0  0  0  0  0  0  0  0  0
   10.8312   -7.9010    0.0000 H   0  0  0  0  0  0  0  0  0  0  0  0
    1.6900    4.6919    0.0000 H   0  0  0  0  0  0  0  0  0  0  0  0
    1.4631    3.8450    0.0000 H   0  0  0  0  0  0  0  0  0  0  0  0
    2.3100    3.6181    0.0000 H   0  0  0  0  0  0  0  0  0  0  0  0
    2.8291    3.4790    0.0000 H   0  0  0  0  0  0  0  0  0  0  0  0
    3.6760    3.2520    0.0000 H   0  0  0  0  0  0  0  0  0  0  0  0
    3.9030    4.0990    0.0000 H   0  0  0  0  0  0  0  0  0  0  0  0
    2.9030    5.8310    0.0000 H   0  0  0  0  0  0  0  0  0  0  0  0
    2.0560    6.0580    0.0000 H   0  0  0  0  0  0  0  0  0  0  0  0
    1.8291    5.2110    0.0000 H   0  0  0  0  0  0  0  0  0  0  0  0
   12.1369   -4.4527    0.0000 H   0  0  0  0  0  0  0  0  0  0  0  0
   11.7383   -3.7624    0.0000 H   0  0  0  0  0  0  0  0  0  0  0  0
    6.9407    4.5473    0.0000 H   0  0  0  0  0  0  0  0  0  0  0  0
    6.5422    5.2376    0.0000 H   0  0  0  0  0  0  0  0  0  0  0  0
   10.0497   -3.7373    0.0000 H   0  0  0  0  0  0  0  0  0  0  0  0
   10.4482   -4.4276    0.0000 H   0  0  0  0  0  0  0  0  0  0  0  0
    5.7196    3.7627    0.0000 H   0  0  0  0  0  0  0  0  0  0  0  0
    6.1181    3.0724    0.0000 H   0  0  0  0  0  0  0  0  0  0  0  0
   12.0632   -8.6550    0.0000 H   0  0  0  0  0  0  0  0  0  0  0  0
    2.8660    7.2750    0.0000 H   0  0  0  0  0  0  0  0  0  0  0  0
   10.4048   -1.4527    0.0000 H   0  0  0  0  0  0  0  0  0  0  0  0
   10.0063   -0.7624    0.0000 H   0  0  0  0  0  0  0  0  0  0  0  0
    8.6728    1.5473    0.0000 H   0  0  0  0  0  0  0  0  0  0  0  0
    8.2742    2.2376    0.0000 H   0  0  0  0  0  0  0  0  0  0  0  0
    8.3176   -0.7373    0.0000 H   0  0  0  0  0  0  0  0  0  0  0  0
    8.7162   -1.4276    0.0000 H   0  0  0  0  0  0  0  0  0  0  0  0
    7.4516    0.7627    0.0000 H   0  0  0  0  0  0  0  0  0  0  0  0
    7.8501    0.0724    0.0000 H   0  0  0  0  0  0  0  0  0  0  0  0
  1 44  1  0  0  0  0
  1 45  1  0  0  0  0
  2 16  1  0  0  0  0
  2 94  1  0  0  0  0
  3 17  1  0  0  0  0
  3 95  1  0  0  0  0
  4 40  1  0  0  0  0
  4 42  1  0  0  0  0
  5 41  1  0  0  0  0
  5 43  1  0  0  0  0
  6 40  2  0  0  0  0
  7 41  2  0  0  0  0
  8 12  1  0  0  0  0
  8 24  1  0  0  0  0
  8 25  1  0  0  0  0
  8 26  1  0  0  0  0
  9 13  1  0  0  0  0
  9 27  1  0  0  0  0
  9 28  1  0  0  0  0
  9 29  1  0  0  0  0
 10 14  1  0  0  0  0
 10 30  1  0  0  0  0
 10 31  1  0  0  0  0
 10 32  1  0  0  0  0
 11 15  1  0  0  0  0
 11 33  1  0  0  0  0
 11 34  1  0  0  0  0
 11 35  1  0  0  0  0
 12 16  2  0  0  0  0
 12 20  1  0  0  0  0
 13 17  2  0  0  0  0
 13 21  1  0  0  0  0
 14 16  1  0  0  0  0
 14 22  2  0  0  0  0
 15 17  1  0  0  0  0
 15 23  2  0  0  0  0
 18 20  2  0  0  0  0
 18 22  1  0  0  0  0
 18 36  1  0  0  0  0
 19 21  2  0  0  0  0
 19 23  1  0  0  0  0
 19 37  1  0  0  0  0
 20 46  1  0  0  0  0
 21 47  1  0  0  0  0
 22 48  1  0  0  0  0
 23 49  1  0  0  0  0
 24 50  1  0  0  0  0
 24 51  1  0  0  0  0
 24 52  1  0  0  0  0
 25 53  1  0  0  0  0
 25 54  1  0  0  0  0
 25 55  1  0  0  0  0
 26 56  1  0  0  0  0
 26 57  1  0  0  0  0
 26 58  1  0  0  0  0
 27 59  1  0  0  0  0
 27 60  1  0  0  0  0
 27 61  1  0  0  0  0
 28 62  1  0  0  0  0
 28 63  1  0  0  0  0
 28 64  1  0  0  0  0
 29 65  1  0  0  0  0
 29 66  1  0  0  0  0
 29 67  1  0  0  0  0
 30 68  1  0  0  0  0
 30 69  1  0  0  0  0
 30 70  1  0  0  0  0
 31 71  1  0  0  0  0
 31 72  1  0  0  0  0
 31 73  1  0  0  0  0
 32 74  1  0  0  0  0
 32 75  1  0  0  0  0
 32 76  1  0  0  0  0
 33 77  1  0  0  0  0
 33 78  1  0  0  0  0
 33 79  1  0  0  0  0
 34 80  1  0  0  0  0
 34 81  1  0  0  0  0
 34 82  1  0  0  0  0
 35 83  1  0  0  0  0
 35 84  1  0  0  0  0
 35 85  1  0  0  0  0
 36 38  1  0  0  0  0
 36 86  1  0  0  0  0
 36 87  1  0  0  0  0
 37 39  1  0  0  0  0
 37 88  1  0  0  0  0
 37 89  1  0  0  0  0
 38 40  1  0  0  0  0
 38 90  1  0  0  0  0
 38 91  1  0  0  0  0
 39 41  1  0  0  0  0
 39 92  1  0  0  0  0
 39 93  1  0  0  0  0
 42 44  1  0  0  0  0
 42 96  1  0  0  0  0
 42 97  1  0  0  0  0
 43 45  1  0  0  0  0
 43 98  1  0  0  0  0
 43 99  1  0  0  0  0
 44100  1  0  0  0  0
 44101  1  0  0  0  0
 45102  1  0  0  0  0
 45103  1  0  0  0  0
M  END
> <PUBCHEM_COMPOUND_CID>
64883

> <PUBCHEM_COMPOUND_CANONICALIZED>
1

> <PUBCHEM_CACTVS_COMPLEXITY>
798

> <PUBCHEM_CACTVS_HBOND_ACCEPTOR>
7

> <PUBCHEM_CACTVS_HBOND_DONOR>
2

> <PUBCHEM_CACTVS_ROTATABLE_BOND>
18

> <PUBCHEM_CACTVS_SUBSKEYS>
AAADcfB8OABAAAAAAAAAAAAAAAAAAAAAAAAwYAAAAAAAAAABQAAAGgQACAAADgSk2AKyDoAABgiIAiDSCAACAAAgIBAAiAEECIgIJjKCERKCcAAkwBEomAeIyOCPoAACAAAIAABAAAQAABAAAAAAAAAAAA==

> <PUBCHEM_IUPAC_OPENEYE_NAME>
2-[2-[3-(3,5-ditert-butyl-4-hydroxy-phenyl)propanoyloxy]ethylsulfanyl]ethyl 3-(3,5-ditert-butyl-4-hydroxy-phenyl)propanoate

> <PUBCHEM_IUPAC_CAS_NAME>
3-(3,5-ditert-butyl-4-hydroxyphenyl)propanoic acid 2-[2-[3-(3,5-ditert-butyl-4-hydroxyphenyl)-1-oxopropoxy]ethylthio]ethyl ester

> <PUBCHEM_IUPAC_NAME_MARKUP>
2-[2-[3-(3,5-di<I>tert</I>-butyl-4-hydroxyphenyl)propanoyloxy]ethylsulfanyl]ethyl 3-(3,5-di<I>tert</I>-butyl-4-hydroxyphenyl)propanoate

> <PUBCHEM_IUPAC_NAME>
2-[2-[3-(3,5-ditert-butyl-4-hydroxyphenyl)propanoyloxy]ethylsulfanyl]ethyl 3-(3,5-ditert-butyl-4-hydroxyphenyl)propanoate

> <PUBCHEM_IUPAC_SYSTEMATIC_NAME>
2-[2-[3-(3,5-ditert-butyl-4-oxidanyl-phenyl)propanoyloxy]ethylsulfanyl]ethyl 3-(3,5-ditert-butyl-4-oxidanyl-phenyl)propanoate

> <PUBCHEM_IUPAC_TRADITIONAL_NAME>
3-(3,5-ditert-butyl-4-hydroxy-phenyl)propionic acid 2-[2-[3-(3,5-ditert-butyl-4-hydroxy-phenyl)propanoyloxy]ethylthio]ethyl ester

> <PUBCHEM_IUPAC_INCHI>
InChI=1S/C38H58O6S/c1-35(2,3)27-21-25(22-28(33(27)41)36(4,5)6)13-15-31(39)43-17-19-45-20-18-44-32(40)16-14-26-23-29(37(7,8)9)34(42)30(24-26)38(10,11)12/h21-24,41-42H,13-20H2,1-12H3

> <PUBCHEM_IUPAC_INCHIKEY>
VFBJXXJYHWLXRM-UHFFFAOYSA-N

> <PUBCHEM_XLOGP3_AA>
10.4

> <PUBCHEM_EXACT_MASS>
642.39541074

> <PUBCHEM_MOLECULAR_FORMULA>
C38H58O6S

> <PUBCHEM_MOLECULAR_WEIGHT>
642.9

> <PUBCHEM_SMILES>
CC(C)(C)C1=CC(=CC(=C1O)C(C)(C)C)CCC(=O)OCCSCCOC(=O)CCC2=CC(=C(C(=C2)C(C)(C)C)O)C(C)(C)C

> <PUBCHEM_OPENEYE_CAN_SMILES>
CC(C)(C)C1=CC(=CC(=C1O)C(C)(C)C)CCC(=O)OCCSCCOC(=O)CCC2=CC(=C(C(=C2)C(C)(C)C)O)C(C)(C)C

> <PUBCHEM_OPENEYE_ISO_SMILES>
CC(C)(C)C1=CC(=CC(=C1O)C(C)(C)C)CCC(=O)OCCSCCOC(=O)CCC2=CC(=C(C(=C2)C(C)(C)C)O)C(C)(C)C

> <PUBCHEM_CACTVS_TPSA>
118

> <PUBCHEM_MONOISOTOPIC_WEIGHT>
642.39541074

> <PUBCHEM_TOTAL_CHARGE>
0

> <PUBCHEM_HEAVY_ATOM_COUNT>
45

> <PUBCHEM_ATOM_DEF_STEREO_COUNT>
0

> <PUBCHEM_ATOM_UDEF_STEREO_COUNT>
0

> <PUBCHEM_BOND_DEF_STEREO_COUNT>
0

> <PUBCHEM_BOND_UDEF_STEREO_COUNT>
0

> <PUBCHEM_ISOTOPIC_ATOM_COUNT>
0

> <PUBCHEM_COMPONENT_COUNT>
1

> <PUBCHEM_CACTVS_TAUTO_COUNT>
-1

> <PUBCHEM_COORDINATE_TYPE>
1
5
255

> <PUBCHEM_BONDANNOTATIONS>
12  16  8
12  20  8
13  17  8
13  21  8
14  16  8
14  22  8
15  17  8
15  23  8
18  20  8
18  22  8
19  21  8
19  23  8

$$$$
