6491
  -OEChem-04042512232D

 17 17  0     0  0  0  0  0  0999 V2000
    2.6723    1.4839    0.0000 O   0  0  0  0  0  0  0  0  0  0  0  0
    5.5202   -0.5852    0.0000 O   0  0  0  0  0  0  0  0  0  0  0  0
    3.7601   -0.8639    0.0000 N   0  0  0  0  0  0  0  0  0  0  0  0
    4.2601    0.6749    0.0000 N   0  0  0  0  0  0  0  0  0  0  0  0
    2.9511   -0.2761    0.0000 C   0  0  0  0  0  0  0  0  0  0  0  0
    3.2601    0.6749    0.0000 C   0  0  0  0  0  0  0  0  0  0  0  0
    2.0000    0.0329    0.0000 C   0  0  0  0  0  0  0  0  0  0  0  0
    2.3633   -1.0852    0.0000 C   0  0  0  0  0  0  0  0  0  0  0  0
    4.5691   -0.2761    0.0000 C   0  0  0  0  0  0  0  0  0  0  0  0
    3.7601   -1.4839    0.0000 H   0  0  0  0  0  0  0  0  0  0  0  0
    2.1916    0.6225    0.0000 H   0  0  0  0  0  0  0  0  0  0  0  0
    1.4103    0.2245    0.0000 H   0  0  0  0  0  0  0  0  0  0  0  0
    1.8084   -0.5568    0.0000 H   0  0  0  0  0  0  0  0  0  0  0  0
    1.8617   -0.7207    0.0000 H   0  0  0  0  0  0  0  0  0  0  0  0
    1.9988   -1.5868    0.0000 H   0  0  0  0  0  0  0  0  0  0  0  0
    2.8649   -1.4496    0.0000 H   0  0  0  0  0  0  0  0  0  0  0  0
    4.6245    1.1765    0.0000 H   0  0  0  0  0  0  0  0  0  0  0  0
  1  6  2  0  0  0  0
  2  9  2  0  0  0  0
  3  5  1  0  0  0  0
  3  9  1  0  0  0  0
  3 10  1  0  0  0  0
  4  6  1  0  0  0  0
  4  9  1  0  0  0  0
  4 17  1  0  0  0  0
  5  6  1  0  0  0  0
  5  7  1  0  0  0  0
  5  8  1  0  0  0  0
  7 11  1  0  0  0  0
  7 12  1  0  0  0  0
  7 13  1  0  0  0  0
  8 14  1  0  0  0  0
  8 15  1  0  0  0  0
  8 16  1  0  0  0  0
M  END
> <PUBCHEM_COMPOUND_CID>
6491

> <PUBCHEM_COMPOUND_CANONICALIZED>
1

> <PUBCHEM_CACTVS_COMPLEXITY>
174

> <PUBCHEM_CACTVS_HBOND_ACCEPTOR>
2

> <PUBCHEM_CACTVS_HBOND_DONOR>
2

> <PUBCHEM_CACTVS_ROTATABLE_BOND>
0

> <PUBCHEM_CACTVS_SUBSKEYS>
AAADccBjMAAAAAAAAAAAAAAAAAAAAWAAAAAAAAAAAAAAAAAAAAAAHgAQAAAADIiBgAADAALAAAAIAAEQEAAAAAAAAAAAAAGAAACAQAAAACAUAAAIFSIAAAAAAAAAAAAAAAAAAAAAAAAAAAAAAAAAAAAAAA==

> <PUBCHEM_IUPAC_OPENEYE_NAME>
5,5-dimethylimidazolidine-2,4-dione

> <PUBCHEM_IUPAC_CAS_NAME>
5,5-dimethylimidazolidine-2,4-dione

> <PUBCHEM_IUPAC_NAME_MARKUP>
5,5-dimethylimidazolidine-2,4-dione

> <PUBCHEM_IUPAC_NAME>
5,5-dimethylimidazolidine-2,4-dione

> <PUBCHEM_IUPAC_SYSTEMATIC_NAME>
5,5-dimethylimidazolidine-2,4-dione

> <PUBCHEM_IUPAC_TRADITIONAL_NAME>
5,5-dimethylhydantoin

> <PUBCHEM_IUPAC_INCHI>
InChI=1S/C5H8N2O2/c1-5(2)3(8)6-4(9)7-5/h1-2H3,(H2,6,7,8,9)

> <PUBCHEM_IUPAC_INCHIKEY>
YIROYDNZEPTFOL-UHFFFAOYSA-N

> <PUBCHEM_XLOGP3>
-0.3

> <PUBCHEM_EXACT_MASS>
128.058577502

> <PUBCHEM_MOLECULAR_FORMULA>
C5H8N2O2

> <PUBCHEM_MOLECULAR_WEIGHT>
128.13

> <PUBCHEM_SMILES>
CC1(C(=O)NC(=O)N1)C

> <PUBCHEM_OPENEYE_CAN_SMILES>
CC1(C(=O)NC(=O)N1)C

> <PUBCHEM_OPENEYE_ISO_SMILES>
CC1(C(=O)NC(=O)N1)C

> <PUBCHEM_CACTVS_TPSA>
58.2

> <PUBCHEM_MONOISOTOPIC_WEIGHT>
128.058577502

> <PUBCHEM_TOTAL_CHARGE>
0

> <PUBCHEM_HEAVY_ATOM_COUNT>
9

> <PUBCHEM_ATOM_DEF_STEREO_COUNT>
0

> <PUBCHEM_ATOM_UDEF_STEREO_COUNT>
0

> <PUBCHEM_BOND_DEF_STEREO_COUNT>
0

> <PUBCHEM_BOND_UDEF_STEREO_COUNT>
0

> <PUBCHEM_ISOTOPIC_ATOM_COUNT>
0

> <PUBCHEM_COMPONENT_COUNT>
1

> <PUBCHEM_CACTVS_TAUTO_COUNT>
-1

> <PUBCHEM_COORDINATE_TYPE>
1
5
255

$$$$
