66171
  -OEChem-04042505352D

 13 13  0     0  0  0  0  0  0999 V2000
    2.8660   -0.0194    0.0000 N   0  0  0  0  0  0  0  0  0  0  0  0
    3.3660    1.5194    0.0000 N   0  0  0  0  0  0  0  0  0  0  0  0
    2.0570    0.5684    0.0000 C   0  0  0  0  0  0  0  0  0  0  0  0
    3.6750    0.5684    0.0000 C   0  0  0  0  0  0  0  0  0  0  0  0
    2.3660    1.5194    0.0000 C   0  0  0  0  0  0  0  0  0  0  0  0
    2.8660   -1.0194    0.0000 C   0  0  0  0  0  0  0  0  0  0  0  0
    2.0000   -1.5194    0.0000 C   0  0  0  0  0  0  0  0  0  0  0  0
    1.4674    0.3768    0.0000 H   0  0  0  0  0  0  0  0  0  0  0  0
    4.2647    0.3768    0.0000 H   0  0  0  0  0  0  0  0  0  0  0  0
    2.0016    2.0210    0.0000 H   0  0  0  0  0  0  0  0  0  0  0  0
    3.4030   -1.3294    0.0000 H   0  0  0  0  0  0  0  0  0  0  0  0
    1.4631   -1.2094    0.0000 H   0  0  0  0  0  0  0  0  0  0  0  0
    2.0000   -2.1394    0.0000 H   0  0  0  0  0  0  0  0  0  0  0  0
  1  3  1  0  0  0  0
  1  4  1  0  0  0  0
  1  6  1  0  0  0  0
  2  4  2  0  0  0  0
  2  5  1  0  0  0  0
  3  5  2  0  0  0  0
  3  8  1  0  0  0  0
  4  9  1  0  0  0  0
  5 10  1  0  0  0  0
  6  7  2  0  0  0  0
  6 11  1  0  0  0  0
  7 12  1  0  0  0  0
  7 13  1  0  0  0  0
M  END
> <PUBCHEM_COMPOUND_CID>
66171

> <PUBCHEM_COMPOUND_CANONICALIZED>
1

> <PUBCHEM_CACTVS_COMPLEXITY>
70.5

> <PUBCHEM_CACTVS_HBOND_ACCEPTOR>
1

> <PUBCHEM_CACTVS_HBOND_DONOR>
0

> <PUBCHEM_CACTVS_ROTATABLE_BOND>
1

> <PUBCHEM_CACTVS_SUBSKEYS>
AAADcYBjAAAAAAAAAAAAAAAAAAAAAWAAAAAAAAAAAAAAAAABgAAAHAAAAAAAAADBAgQtkBcMEACgABAnZAAAgC0REqAJQAAYMACASAAACAAQAAAIAAIAACAAAAAAAAAAAAAAAAAAAAAAAAAAAAAAAAAAAA==

> <PUBCHEM_IUPAC_OPENEYE_NAME>
1-vinylimidazole

> <PUBCHEM_IUPAC_CAS_NAME>
1-ethenylimidazole

> <PUBCHEM_IUPAC_NAME_MARKUP>
1-ethenylimidazole

> <PUBCHEM_IUPAC_NAME>
1-ethenylimidazole

> <PUBCHEM_IUPAC_SYSTEMATIC_NAME>
1-ethenylimidazole

> <PUBCHEM_IUPAC_TRADITIONAL_NAME>
1-vinylimidazole

> <PUBCHEM_IUPAC_INCHI>
InChI=1S/C5H6N2/c1-2-7-4-3-6-5-7/h2-5H,1H2

> <PUBCHEM_IUPAC_INCHIKEY>
OSSNTDFYBPYIEC-UHFFFAOYSA-N

> <PUBCHEM_XLOGP3>
0.5

> <PUBCHEM_EXACT_MASS>
94.053098200

> <PUBCHEM_MOLECULAR_FORMULA>
C5H6N2

> <PUBCHEM_MOLECULAR_WEIGHT>
94.11

> <PUBCHEM_SMILES>
C=CN1C=CN=C1

> <PUBCHEM_OPENEYE_CAN_SMILES>
C=CN1C=CN=C1

> <PUBCHEM_OPENEYE_ISO_SMILES>
C=CN1C=CN=C1

> <PUBCHEM_CACTVS_TPSA>
17.8

> <PUBCHEM_MONOISOTOPIC_WEIGHT>
94.053098200

> <PUBCHEM_TOTAL_CHARGE>
0

> <PUBCHEM_HEAVY_ATOM_COUNT>
7

> <PUBCHEM_ATOM_DEF_STEREO_COUNT>
0

> <PUBCHEM_ATOM_UDEF_STEREO_COUNT>
0

> <PUBCHEM_BOND_DEF_STEREO_COUNT>
0

> <PUBCHEM_BOND_UDEF_STEREO_COUNT>
0

> <PUBCHEM_ISOTOPIC_ATOM_COUNT>
0

> <PUBCHEM_COMPONENT_COUNT>
1

> <PUBCHEM_CACTVS_TAUTO_COUNT>
-1

> <PUBCHEM_COORDINATE_TYPE>
1
5
255

> <PUBCHEM_BONDANNOTATIONS>
1  3  8
1  4  8
2  4  8
2  5  8
3  5  8

$$$$
