66227
  -OEChem-04042505472D

  2  1  0     0  0  0  0  0  0999 V2000
    3.0000    0.0000    0.0000 N   0  0  0  0  0  0  0  0  0  0  0  0
    2.0000    0.0000    0.0000 B   0  0  0  0  0  0  0  0  0  0  0  0
  1  2  3  0  0  0  0
M  END
> <PUBCHEM_COMPOUND_CID>
66227

> <PUBCHEM_COMPOUND_CANONICALIZED>
1

> <PUBCHEM_CACTVS_COMPLEXITY>
10

> <PUBCHEM_CACTVS_HBOND_ACCEPTOR>
1

> <PUBCHEM_CACTVS_HBOND_DONOR>
0

> <PUBCHEM_CACTVS_ROTATABLE_BOND>
0

> <PUBCHEM_CACTVS_SUBSKEYS>
AAADcQICAAAAAAAAAAAAAAAAAAAAAAAAAAAAAAAAAAAAAAAAAAAQAAAAAAAAAAAAAAAAAAAAAAAAAAAAAAAAAAAAAAAAAAAAAAAAAAAAAAAAAAAAAAAAAAAAAAAAAAAAAAAAAAAAAAAAAAAAAAAAAAAAAA==

> <PUBCHEM_IUPAC_OPENEYE_NAME>
nitridoborane

> <PUBCHEM_IUPAC_CAS_NAME>
nitriloborane

> <PUBCHEM_IUPAC_NAME_MARKUP>
azanylidyneborane

> <PUBCHEM_IUPAC_NAME>
azanylidyneborane

> <PUBCHEM_IUPAC_SYSTEMATIC_NAME>
azanylidyneborane

> <PUBCHEM_IUPAC_TRADITIONAL_NAME>
nitriloborane

> <PUBCHEM_IUPAC_INCHI>
InChI=1S/BN/c1-2

> <PUBCHEM_IUPAC_INCHIKEY>
PZNSFCLAULLKQX-UHFFFAOYSA-N

> <PUBCHEM_EXACT_MASS>
25.0123792

> <PUBCHEM_MOLECULAR_FORMULA>
BN

> <PUBCHEM_MOLECULAR_WEIGHT>
24.82

> <PUBCHEM_SMILES>
B#N

> <PUBCHEM_OPENEYE_CAN_SMILES>
B#N

> <PUBCHEM_OPENEYE_ISO_SMILES>
B#N

> <PUBCHEM_CACTVS_TPSA>
23.8

> <PUBCHEM_MONOISOTOPIC_WEIGHT>
25.0123792

> <PUBCHEM_TOTAL_CHARGE>
0

> <PUBCHEM_HEAVY_ATOM_COUNT>
2

> <PUBCHEM_ATOM_DEF_STEREO_COUNT>
0

> <PUBCHEM_ATOM_UDEF_STEREO_COUNT>
0

> <PUBCHEM_BOND_DEF_STEREO_COUNT>
0

> <PUBCHEM_BOND_UDEF_STEREO_COUNT>
0

> <PUBCHEM_ISOTOPIC_ATOM_COUNT>
0

> <PUBCHEM_COMPONENT_COUNT>
1

> <PUBCHEM_CACTVS_TAUTO_COUNT>
-1

> <PUBCHEM_COORDINATE_TYPE>
1
5
255

$$$$
