66687139
  -OEChem-04042506002D

 80 82  0     1  0  0  0  0  0999 V2000
    7.1962   -0.7500    0.0000 O   0  0  0  0  0  0  0  0  0  0  0  0
    8.0622   -0.2500    0.0000 O   0  0  0  0  0  0  0  0  0  0  0  0
    6.3301    2.7500    0.0000 O   0  0  0  0  0  0  0  0  0  0  0  0
    5.4641   -0.7500    0.0000 N   0  0  0  0  0  0  0  0  0  0  0  0
    8.9282    1.2500    0.0000 N   0  0  0  0  0  0  0  0  0  0  0  0
    4.5981    2.7500    0.0000 N   0  0  0  0  0  0  0  0  0  0  0  0
    5.4641   -1.7500    0.0000 C   0  0  3  0  0  0  0  0  0  0  0  0
    4.5981   -2.2500    0.0000 C   0  0  3  0  0  0  0  0  0  0  0  0
    9.7942    0.7500    0.0000 C   0  0  3  0  0  0  0  0  0  0  0  0
    3.7320    2.2500    0.0000 C   0  0  3  0  0  0  0  0  0  0  0  0
   10.6603    1.2500    0.0000 C   0  0  3  0  0  0  0  0  0  0  0  0
    2.8660    2.7500    0.0000 C   0  0  3  0  0  0  0  0  0  0  0  0
    6.3301   -2.2500    0.0000 C   0  0  0  0  0  0  0  0  0  0  0  0
    4.5981   -3.2500    0.0000 C   0  0  0  0  0  0  0  0  0  0  0  0
    9.7942   -0.2500    0.0000 C   0  0  0  0  0  0  0  0  0  0  0  0
    3.7320    1.2500    0.0000 C   0  0  0  0  0  0  0  0  0  0  0  0
   11.5263    0.7500    0.0000 C   0  0  0  0  0  0  0  0  0  0  0  0
    2.0000    2.2500    0.0000 C   0  0  0  0  0  0  0  0  0  0  0  0
    6.3301   -3.2500    0.0000 C   0  0  0  0  0  0  0  0  0  0  0  0
    5.4641   -3.7500    0.0000 C   0  0  0  0  0  0  0  0  0  0  0  0
   10.6603   -0.7500    0.0000 C   0  0  0  0  0  0  0  0  0  0  0  0
    2.8660    0.7500    0.0000 C   0  0  0  0  0  0  0  0  0  0  0  0
   11.5263   -0.2500    0.0000 C   0  0  0  0  0  0  0  0  0  0  0  0
    2.0000    1.2500    0.0000 C   0  0  0  0  0  0  0  0  0  0  0  0
    6.3301    0.7500    0.0000 C   0  0  0  0  0  0  0  0  0  0  0  0
    3.7320   -1.7500    0.0000 C   0  0  0  0  0  0  0  0  0  0  0  0
   10.6603    2.2500    0.0000 C   0  0  0  0  0  0  0  0  0  0  0  0
    2.8660    3.7500    0.0000 C   0  0  0  0  0  0  0  0  0  0  0  0
    7.1962    1.2500    0.0000 C   0  0  0  0  0  0  0  0  0  0  0  0
    5.4641    1.2500    0.0000 C   0  0  0  0  0  0  0  0  0  0  0  0
    6.3301   -0.2500    0.0000 C   0  0  0  0  0  0  0  0  0  0  0  0
    8.0622    0.7500    0.0000 C   0  0  0  0  0  0  0  0  0  0  0  0
    5.4641    2.2500    0.0000 C   0  0  0  0  0  0  0  0  0  0  0  0
    6.0010   -1.4400    0.0000 H   0  0  0  0  0  0  0  0  0  0  0  0
    4.5981   -1.6300    0.0000 H   0  0  0  0  0  0  0  0  0  0  0  0
    9.2573    0.4400    0.0000 H   0  0  0  0  0  0  0  0  0  0  0  0
    3.7320    2.8700    0.0000 H   0  0  0  0  0  0  0  0  0  0  0  0
   11.1972    1.5600    0.0000 H   0  0  0  0  0  0  0  0  0  0  0  0
    2.3291    3.0600    0.0000 H   0  0  0  0  0  0  0  0  0  0  0  0
    6.9407   -2.3577    0.0000 H   0  0  0  0  0  0  0  0  0  0  0  0
    6.5422   -1.6674    0.0000 H   0  0  0  0  0  0  0  0  0  0  0  0
    3.9875   -3.1423    0.0000 H   0  0  0  0  0  0  0  0  0  0  0  0
    4.3860   -3.8326    0.0000 H   0  0  0  0  0  0  0  0  0  0  0  0
    9.1836   -0.1423    0.0000 H   0  0  0  0  0  0  0  0  0  0  0  0
    9.5822   -0.8326    0.0000 H   0  0  0  0  0  0  0  0  0  0  0  0
    3.9441    0.6674    0.0000 H   0  0  0  0  0  0  0  0  0  0  0  0
    4.3426    1.3577    0.0000 H   0  0  0  0  0  0  0  0  0  0  0  0
   12.1369    0.6423    0.0000 H   0  0  0  0  0  0  0  0  0  0  0  0
   11.7383    1.3326    0.0000 H   0  0  0  0  0  0  0  0  0  0  0  0
    1.7880    2.8326    0.0000 H   0  0  0  0  0  0  0  0  0  0  0  0
    1.3894    2.1423    0.0000 H   0  0  0  0  0  0  0  0  0  0  0  0
    6.5422   -3.8326    0.0000 H   0  0  0  0  0  0  0  0  0  0  0  0
    6.9407   -3.1423    0.0000 H   0  0  0  0  0  0  0  0  0  0  0  0
    5.0656   -4.2250    0.0000 H   0  0  0  0  0  0  0  0  0  0  0  0
    5.8626   -4.2250    0.0000 H   0  0  0  0  0  0  0  0  0  0  0  0
   10.2617   -1.2250    0.0000 H   0  0  0  0  0  0  0  0  0  0  0  0
   11.0588   -1.2250    0.0000 H   0  0  0  0  0  0  0  0  0  0  0  0
    2.4675    0.2751    0.0000 H   0  0  0  0  0  0  0  0  0  0  0  0
    3.2646    0.2751    0.0000 H   0  0  0  0  0  0  0  0  0  0  0  0
   11.7383   -0.8326    0.0000 H   0  0  0  0  0  0  0  0  0  0  0  0
   12.1369   -0.1423    0.0000 H   0  0  0  0  0  0  0  0  0  0  0  0
    1.3894    1.3577    0.0000 H   0  0  0  0  0  0  0  0  0  0  0  0
    1.7880    0.6674    0.0000 H   0  0  0  0  0  0  0  0  0  0  0  0
    6.8671    0.4400    0.0000 H   0  0  0  0  0  0  0  0  0  0  0  0
    4.9272   -0.4400    0.0000 H   0  0  0  0  0  0  0  0  0  0  0  0
    4.0420   -1.2131    0.0000 H   0  0  0  0  0  0  0  0  0  0  0  0
    3.1951   -1.4400    0.0000 H   0  0  0  0  0  0  0  0  0  0  0  0
    3.4220   -2.2869    0.0000 H   0  0  0  0  0  0  0  0  0  0  0  0
    8.9282    1.8700    0.0000 H   0  0  0  0  0  0  0  0  0  0  0  0
    4.5981    3.3700    0.0000 H   0  0  0  0  0  0  0  0  0  0  0  0
   11.2803    2.2500    0.0000 H   0  0  0  0  0  0  0  0  0  0  0  0
   10.6603    2.8700    0.0000 H   0  0  0  0  0  0  0  0  0  0  0  0
   10.0403    2.2500    0.0000 H   0  0  0  0  0  0  0  0  0  0  0  0
    3.4860    3.7500    0.0000 H   0  0  0  0  0  0  0  0  0  0  0  0
    2.8660    4.3700    0.0000 H   0  0  0  0  0  0  0  0  0  0  0  0
    2.2460    3.7500    0.0000 H   0  0  0  0  0  0  0  0  0  0  0  0
    7.5947    1.7250    0.0000 H   0  0  0  0  0  0  0  0  0  0  0  0
    6.7976    1.7250    0.0000 H   0  0  0  0  0  0  0  0  0  0  0  0
    4.8535    1.3577    0.0000 H   0  0  0  0  0  0  0  0  0  0  0  0
    5.2520    0.6674    0.0000 H   0  0  0  0  0  0  0  0  0  0  0  0
  1 31  2  0  0  0  0
  2 32  2  0  0  0  0
  3 33  2  0  0  0  0
  4  7  1  0  0  0  0
  4 31  1  0  0  0  0
  4 65  1  0  0  0  0
  5  9  1  0  0  0  0
  5 32  1  0  0  0  0
  5 69  1  0  0  0  0
  6 10  1  0  0  0  0
  6 33  1  0  0  0  0
  6 70  1  0  0  0  0
  7  8  1  0  0  0  0
  7 13  1  0  0  0  0
  7 34  1  0  0  0  0
  8 14  1  0  0  0  0
  8 26  1  0  0  0  0
  8 35  1  0  0  0  0
  9 11  1  0  0  0  0
  9 15  1  0  0  0  0
  9 36  1  0  0  0  0
 10 12  1  0  0  0  0
 10 16  1  0  0  0  0
 10 37  1  0  0  0  0
 11 17  1  0  0  0  0
 11 27  1  0  0  0  0
 11 38  1  0  0  0  0
 12 18  1  0  0  0  0
 12 28  1  0  0  0  0
 12 39  1  0  0  0  0
 13 19  1  0  0  0  0
 13 40  1  0  0  0  0
 13 41  1  0  0  0  0
 14 20  1  0  0  0  0
 14 42  1  0  0  0  0
 14 43  1  0  0  0  0
 15 21  1  0  0  0  0
 15 44  1  0  0  0  0
 15 45  1  0  0  0  0
 16 22  1  0  0  0  0
 16 46  1  0  0  0  0
 16 47  1  0  0  0  0
 17 23  1  0  0  0  0
 17 48  1  0  0  0  0
 17 49  1  0  0  0  0
 18 24  1  0  0  0  0
 18 50  1  0  0  0  0
 18 51  1  0  0  0  0
 19 20  1  0  0  0  0
 19 52  1  0  0  0  0
 19 53  1  0  0  0  0
 20 54  1  0  0  0  0
 20 55  1  0  0  0  0
 21 23  1  0  0  0  0
 21 56  1  0  0  0  0
 21 57  1  0  0  0  0
 22 24  1  0  0  0  0
 22 58  1  0  0  0  0
 22 59  1  0  0  0  0
 23 60  1  0  0  0  0
 23 61  1  0  0  0  0
 24 62  1  0  0  0  0
 24 63  1  0  0  0  0
 25 29  1  0  0  0  0
 25 30  1  0  0  0  0
 25 31  1  0  0  0  0
 25 64  1  0  0  0  0
 26 66  1  0  0  0  0
 26 67  1  0  0  0  0
 26 68  1  0  0  0  0
 27 71  1  0  0  0  0
 27 72  1  0  0  0  0
 27 73  1  0  0  0  0
 28 74  1  0  0  0  0
 28 75  1  0  0  0  0
 28 76  1  0  0  0  0
 29 32  1  0  0  0  0
 29 77  1  0  0  0  0
 29 78  1  0  0  0  0
 30 33  1  0  0  0  0
 30 79  1  0  0  0  0
 30 80  1  0  0  0  0
M  END
> <PUBCHEM_COMPOUND_CID>
66687139

> <PUBCHEM_COMPOUND_CANONICALIZED>
1

> <PUBCHEM_CACTVS_COMPLEXITY>
629

> <PUBCHEM_CACTVS_HBOND_ACCEPTOR>
3

> <PUBCHEM_CACTVS_HBOND_DONOR>
3

> <PUBCHEM_CACTVS_ROTATABLE_BOND>
8

> <PUBCHEM_CACTVS_SUBSKEYS>
AAADcfB7MAAAAAAAAAAAAAAAAAAAAAAAAAAwYMAAAAAAAAAAAAAAHgAQAAAADSjBgAQCAALAAAAIAAEQEAAAAAAAAAAAAIEIAAAAABIAgAAEAAAAFgCAAAEdgwAOAAAAAAAAAAAAAAAAAAQAAAAAAAAAAA==

> <PUBCHEM_IUPAC_OPENEYE_NAME>
N1,N2,N3-tris(2-methylcyclohexyl)propane-1,2,3-tricarboxamide

> <PUBCHEM_IUPAC_CAS_NAME>
N1,N2,N3-tris(2-methylcyclohexyl)propane-1,2,3-tricarboxamide

> <PUBCHEM_IUPAC_NAME_MARKUP>
1-<I>N</I>,2-<I>N</I>,3-<I>N</I>-tris(2-methylcyclohexyl)propane-1,2,3-tricarboxamide

> <PUBCHEM_IUPAC_NAME>
1-N,2-N,3-N-tris(2-methylcyclohexyl)propane-1,2,3-tricarboxamide

> <PUBCHEM_IUPAC_SYSTEMATIC_NAME>
N1,N2,N3-tris(2-methylcyclohexyl)propane-1,2,3-tricarboxamide

> <PUBCHEM_IUPAC_TRADITIONAL_NAME>
N1,N2,N3-tris(2-methylcyclohexyl)propane-1,2,3-tricarboxamide

> <PUBCHEM_IUPAC_INCHI>
InChI=1S/C27H47N3O3/c1-18-10-4-7-13-22(18)28-25(31)16-21(27(33)30-24-15-9-6-12-20(24)3)17-26(32)29-23-14-8-5-11-19(23)2/h18-24H,4-17H2,1-3H3,(H,28,31)(H,29,32)(H,30,33)

> <PUBCHEM_IUPAC_INCHIKEY>
NWDVCUXGELFJOC-UHFFFAOYSA-N

> <PUBCHEM_XLOGP3_AA>
4.7

> <PUBCHEM_EXACT_MASS>
461.36174237

> <PUBCHEM_MOLECULAR_FORMULA>
C27H47N3O3

> <PUBCHEM_MOLECULAR_WEIGHT>
461.7

> <PUBCHEM_SMILES>
CC1CCCCC1NC(=O)CC(CC(=O)NC2CCCCC2C)C(=O)NC3CCCCC3C

> <PUBCHEM_OPENEYE_CAN_SMILES>
CC1CCCCC1NC(=O)CC(CC(=O)NC2CCCCC2C)C(=O)NC3CCCCC3C

> <PUBCHEM_OPENEYE_ISO_SMILES>
CC1CCCCC1NC(=O)CC(CC(=O)NC2CCCCC2C)C(=O)NC3CCCCC3C

> <PUBCHEM_CACTVS_TPSA>
87.3

> <PUBCHEM_MONOISOTOPIC_WEIGHT>
461.36174237

> <PUBCHEM_TOTAL_CHARGE>
0

> <PUBCHEM_HEAVY_ATOM_COUNT>
33

> <PUBCHEM_ATOM_DEF_STEREO_COUNT>
0

> <PUBCHEM_ATOM_UDEF_STEREO_COUNT>
6

> <PUBCHEM_BOND_DEF_STEREO_COUNT>
0

> <PUBCHEM_BOND_UDEF_STEREO_COUNT>
0

> <PUBCHEM_ISOTOPIC_ATOM_COUNT>
0

> <PUBCHEM_COMPONENT_COUNT>
1

> <PUBCHEM_CACTVS_TAUTO_COUNT>
-1

> <PUBCHEM_COORDINATE_TYPE>
1
5
255

> <PUBCHEM_BONDANNOTATIONS>
11  27  3
12  28  3
7  4  3
9  5  3
10  6  3
8  26  3

$$$$
