67044
  -OEChem-04042505442D

 15 16  0     0  0  0  0  0  0999 V2000
    2.0000    1.0000    0.0000 Cl  0  0  0  0  0  0  0  0  0  0  0  0
    6.1279    0.0000    0.0000 O   0  0  0  0  0  0  0  0  0  0  0  0
    5.8550    1.7552    0.0000 O   0  0  0  0  0  0  0  0  0  0  0  0
    5.8550   -1.7552    0.0000 O   0  0  0  0  0  0  0  0  0  0  0  0
    4.5981    0.5000    0.0000 C   0  0  0  0  0  0  0  0  0  0  0  0
    4.5981   -0.5000    0.0000 C   0  0  0  0  0  0  0  0  0  0  0  0
    3.7320    1.0000    0.0000 C   0  0  0  0  0  0  0  0  0  0  0  0
    3.7320   -1.0000    0.0000 C   0  0  0  0  0  0  0  0  0  0  0  0
    5.5443    0.8047    0.0000 C   0  0  0  0  0  0  0  0  0  0  0  0
    5.5443   -0.8047    0.0000 C   0  0  0  0  0  0  0  0  0  0  0  0
    2.8660    0.5000    0.0000 C   0  0  0  0  0  0  0  0  0  0  0  0
    2.8660   -0.5000    0.0000 C   0  0  0  0  0  0  0  0  0  0  0  0
    3.7320    1.6200    0.0000 H   0  0  0  0  0  0  0  0  0  0  0  0
    3.7320   -1.6200    0.0000 H   0  0  0  0  0  0  0  0  0  0  0  0
    2.3291   -0.8100    0.0000 H   0  0  0  0  0  0  0  0  0  0  0  0
  1 11  1  0  0  0  0
  2  9  1  0  0  0  0
  2 10  1  0  0  0  0
  3  9  2  0  0  0  0
  4 10  2  0  0  0  0
  5  6  2  0  0  0  0
  5  7  1  0  0  0  0
  5  9  1  0  0  0  0
  6  8  1  0  0  0  0
  6 10  1  0  0  0  0
  7 11  2  0  0  0  0
  7 13  1  0  0  0  0
  8 12  2  0  0  0  0
  8 14  1  0  0  0  0
 11 12  1  0  0  0  0
 12 15  1  0  0  0  0
M  END
> <PUBCHEM_COMPOUND_CID>
67044

> <PUBCHEM_COMPOUND_CANONICALIZED>
1

> <PUBCHEM_CACTVS_COMPLEXITY>
238

> <PUBCHEM_CACTVS_HBOND_ACCEPTOR>
3

> <PUBCHEM_CACTVS_HBOND_DONOR>
0

> <PUBCHEM_CACTVS_ROTATABLE_BOND>
0

> <PUBCHEM_CACTVS_SUBSKEYS>
AAADcQBwMAAEAAAAAAAAAAAAAAAAASAAAAAwAAAAAAAAAEgBAAAAGgIAAAAADAKAmCAwCIAABACIAiDSCAACAAAkBQAIiAEACsgIJjKBNxiCMQAkwAEIqYeLyKCOhAAAIAAQAAAIAABAACAAAAAAAAAAAA==

> <PUBCHEM_IUPAC_OPENEYE_NAME>
5-chloroisobenzofuran-1,3-dione

> <PUBCHEM_IUPAC_CAS_NAME>
5-chloroisobenzofuran-1,3-dione

> <PUBCHEM_IUPAC_NAME_MARKUP>
5-chloro-2-benzofuran-1,3-dione

> <PUBCHEM_IUPAC_NAME>
5-chloro-2-benzofuran-1,3-dione

> <PUBCHEM_IUPAC_SYSTEMATIC_NAME>
5-chloranyl-2-benzofuran-1,3-dione

> <PUBCHEM_IUPAC_TRADITIONAL_NAME>
5-chlorophthalan-1,3-quinone

> <PUBCHEM_IUPAC_INCHI>
InChI=1S/C8H3ClO3/c9-4-1-2-5-6(3-4)8(11)12-7(5)10/h1-3H

> <PUBCHEM_IUPAC_INCHIKEY>
BTTRMCQEPDPCPA-UHFFFAOYSA-N

> <PUBCHEM_XLOGP3_AA>
1.9

> <PUBCHEM_EXACT_MASS>
181.9770716

> <PUBCHEM_MOLECULAR_FORMULA>
C8H3ClO3

> <PUBCHEM_MOLECULAR_WEIGHT>
182.56

> <PUBCHEM_SMILES>
C1=CC2=C(C=C1Cl)C(=O)OC2=O

> <PUBCHEM_OPENEYE_CAN_SMILES>
C1=CC2=C(C=C1Cl)C(=O)OC2=O

> <PUBCHEM_OPENEYE_ISO_SMILES>
C1=CC2=C(C=C1Cl)C(=O)OC2=O

> <PUBCHEM_CACTVS_TPSA>
43.4

> <PUBCHEM_MONOISOTOPIC_WEIGHT>
181.9770716

> <PUBCHEM_TOTAL_CHARGE>
0

> <PUBCHEM_HEAVY_ATOM_COUNT>
12

> <PUBCHEM_ATOM_DEF_STEREO_COUNT>
0

> <PUBCHEM_ATOM_UDEF_STEREO_COUNT>
0

> <PUBCHEM_BOND_DEF_STEREO_COUNT>
0

> <PUBCHEM_BOND_UDEF_STEREO_COUNT>
0

> <PUBCHEM_ISOTOPIC_ATOM_COUNT>
0

> <PUBCHEM_COMPONENT_COUNT>
1

> <PUBCHEM_CACTVS_TAUTO_COUNT>
-1

> <PUBCHEM_COORDINATE_TYPE>
1
5
255

> <PUBCHEM_BONDANNOTATIONS>
11  12  8
5  6  8
5  7  8
6  8  8
7  11  8
8  12  8

$$$$
