67057
  -OEChem-04042506022D

 72 72  0     0  0  0  0  0  0999 V2000
    6.3301   -1.7500    0.0000 O   0  0  0  0  0  0  0  0  0  0  0  0
    8.0622    3.2500    0.0000 O   0  0  0  0  0  0  0  0  0  0  0  0
    8.0622   -1.7500    0.0000 O   0  0  0  0  0  0  0  0  0  0  0  0
    6.3301    3.2500    0.0000 O   0  0  0  0  0  0  0  0  0  0  0  0
    3.7320   -6.2500    0.0000 C   0  0  0  0  0  0  0  0  0  0  0  0
    3.7320   -7.2500    0.0000 C   0  0  0  0  0  0  0  0  0  0  0  0
    4.5981   -5.7500    0.0000 C   0  0  0  0  0  0  0  0  0  0  0  0
    2.8660   -7.7500    0.0000 C   0  0  0  0  0  0  0  0  0  0  0  0
    4.5981   -4.7500    0.0000 C   0  0  0  0  0  0  0  0  0  0  0  0
    5.4641   -4.2500    0.0000 C   0  0  0  0  0  0  0  0  0  0  0  0
    9.7942    7.2500    0.0000 C   0  0  0  0  0  0  0  0  0  0  0  0
   10.6603    7.7500    0.0000 C   0  0  0  0  0  0  0  0  0  0  0  0
    9.7942    6.2500    0.0000 C   0  0  0  0  0  0  0  0  0  0  0  0
    8.9282    5.7500    0.0000 C   0  0  0  0  0  0  0  0  0  0  0  0
    5.4641   -3.2500    0.0000 C   0  0  0  0  0  0  0  0  0  0  0  0
    2.8660   -8.7500    0.0000 C   0  0  0  0  0  0  0  0  0  0  0  0
    2.0000   -7.2500    0.0000 C   0  0  0  0  0  0  0  0  0  0  0  0
    8.9282    4.7500    0.0000 C   0  0  0  0  0  0  0  0  0  0  0  0
   10.6603    8.7500    0.0000 C   0  0  0  0  0  0  0  0  0  0  0  0
   11.5263    7.2500    0.0000 C   0  0  0  0  0  0  0  0  0  0  0  0
    6.3301   -2.7500    0.0000 C   0  0  0  0  0  0  0  0  0  0  0  0
    8.0622    4.2500    0.0000 C   0  0  0  0  0  0  0  0  0  0  0  0
    7.1962   -1.2500    0.0000 C   0  0  0  0  0  0  0  0  0  0  0  0
    7.1962    2.7500    0.0000 C   0  0  0  0  0  0  0  0  0  0  0  0
    7.1962   -0.2500    0.0000 C   0  0  0  0  0  0  0  0  0  0  0  0
    7.1962    1.7500    0.0000 C   0  0  0  0  0  0  0  0  0  0  0  0
    8.0622    0.2500    0.0000 C   0  0  0  0  0  0  0  0  0  0  0  0
    6.3301    0.2500    0.0000 C   0  0  0  0  0  0  0  0  0  0  0  0
    8.0622    1.2500    0.0000 C   0  0  0  0  0  0  0  0  0  0  0  0
    6.3301    1.2500    0.0000 C   0  0  0  0  0  0  0  0  0  0  0  0
    3.5200   -5.6674    0.0000 H   0  0  0  0  0  0  0  0  0  0  0  0
    3.1215   -6.3577    0.0000 H   0  0  0  0  0  0  0  0  0  0  0  0
    3.9441   -7.8326    0.0000 H   0  0  0  0  0  0  0  0  0  0  0  0
    4.3426   -7.1423    0.0000 H   0  0  0  0  0  0  0  0  0  0  0  0
    4.8101   -6.3326    0.0000 H   0  0  0  0  0  0  0  0  0  0  0  0
    5.2087   -5.6423    0.0000 H   0  0  0  0  0  0  0  0  0  0  0  0
    2.8660   -7.1300    0.0000 H   0  0  0  0  0  0  0  0  0  0  0  0
    4.3860   -4.1674    0.0000 H   0  0  0  0  0  0  0  0  0  0  0  0
    3.9875   -4.8577    0.0000 H   0  0  0  0  0  0  0  0  0  0  0  0
    5.6762   -4.8326    0.0000 H   0  0  0  0  0  0  0  0  0  0  0  0
    6.0747   -4.1423    0.0000 H   0  0  0  0  0  0  0  0  0  0  0  0
    9.5822    7.8326    0.0000 H   0  0  0  0  0  0  0  0  0  0  0  0
    9.1836    7.1423    0.0000 H   0  0  0  0  0  0  0  0  0  0  0  0
   11.1972    8.0600    0.0000 H   0  0  0  0  0  0  0  0  0  0  0  0
   10.0063    5.6674    0.0000 H   0  0  0  0  0  0  0  0  0  0  0  0
   10.4048    6.3577    0.0000 H   0  0  0  0  0  0  0  0  0  0  0  0
    8.7162    6.3326    0.0000 H   0  0  0  0  0  0  0  0  0  0  0  0
    8.3176    5.6423    0.0000 H   0  0  0  0  0  0  0  0  0  0  0  0
    5.2520   -2.6674    0.0000 H   0  0  0  0  0  0  0  0  0  0  0  0
    4.8535   -3.3577    0.0000 H   0  0  0  0  0  0  0  0  0  0  0  0
    2.2460   -8.7500    0.0000 H   0  0  0  0  0  0  0  0  0  0  0  0
    2.8660   -9.3700    0.0000 H   0  0  0  0  0  0  0  0  0  0  0  0
    3.4860   -8.7500    0.0000 H   0  0  0  0  0  0  0  0  0  0  0  0
    2.3100   -6.7131    0.0000 H   0  0  0  0  0  0  0  0  0  0  0  0
    1.4631   -6.9400    0.0000 H   0  0  0  0  0  0  0  0  0  0  0  0
    1.6900   -7.7869    0.0000 H   0  0  0  0  0  0  0  0  0  0  0  0
    9.1403    4.1674    0.0000 H   0  0  0  0  0  0  0  0  0  0  0  0
    9.5388    4.8577    0.0000 H   0  0  0  0  0  0  0  0  0  0  0  0
   11.2803    8.7500    0.0000 H   0  0  0  0  0  0  0  0  0  0  0  0
   10.6603    9.3700    0.0000 H   0  0  0  0  0  0  0  0  0  0  0  0
   10.0403    8.7500    0.0000 H   0  0  0  0  0  0  0  0  0  0  0  0
   11.2163    6.7131    0.0000 H   0  0  0  0  0  0  0  0  0  0  0  0
   12.0632    6.9400    0.0000 H   0  0  0  0  0  0  0  0  0  0  0  0
   11.8363    7.7869    0.0000 H   0  0  0  0  0  0  0  0  0  0  0  0
    6.5422   -3.3326    0.0000 H   0  0  0  0  0  0  0  0  0  0  0  0
    6.9407   -2.6423    0.0000 H   0  0  0  0  0  0  0  0  0  0  0  0
    7.8501    4.8326    0.0000 H   0  0  0  0  0  0  0  0  0  0  0  0
    7.4516    4.1423    0.0000 H   0  0  0  0  0  0  0  0  0  0  0  0
    8.5991   -0.0600    0.0000 H   0  0  0  0  0  0  0  0  0  0  0  0
    5.7932   -0.0600    0.0000 H   0  0  0  0  0  0  0  0  0  0  0  0
    8.5991    1.5600    0.0000 H   0  0  0  0  0  0  0  0  0  0  0  0
    5.7932    1.5600    0.0000 H   0  0  0  0  0  0  0  0  0  0  0  0
  1 21  1  0  0  0  0
  1 23  1  0  0  0  0
  2 22  1  0  0  0  0
  2 24  1  0  0  0  0
  3 23  2  0  0  0  0
  4 24  2  0  0  0  0
  5  6  1  0  0  0  0
  5  7  1  0  0  0  0
  5 31  1  0  0  0  0
  5 32  1  0  0  0  0
  6  8  1  0  0  0  0
  6 33  1  0  0  0  0
  6 34  1  0  0  0  0
  7  9  1  0  0  0  0
  7 35  1  0  0  0  0
  7 36  1  0  0  0  0
  8 16  1  0  0  0  0
  8 17  1  0  0  0  0
  8 37  1  0  0  0  0
  9 10  1  0  0  0  0
  9 38  1  0  0  0  0
  9 39  1  0  0  0  0
 10 15  1  0  0  0  0
 10 40  1  0  0  0  0
 10 41  1  0  0  0  0
 11 12  1  0  0  0  0
 11 13  1  0  0  0  0
 11 42  1  0  0  0  0
 11 43  1  0  0  0  0
 12 19  1  0  0  0  0
 12 20  1  0  0  0  0
 12 44  1  0  0  0  0
 13 14  1  0  0  0  0
 13 45  1  0  0  0  0
 13 46  1  0  0  0  0
 14 18  1  0  0  0  0
 14 47  1  0  0  0  0
 14 48  1  0  0  0  0
 15 21  1  0  0  0  0
 15 49  1  0  0  0  0
 15 50  1  0  0  0  0
 16 51  1  0  0  0  0
 16 52  1  0  0  0  0
 16 53  1  0  0  0  0
 17 54  1  0  0  0  0
 17 55  1  0  0  0  0
 17 56  1  0  0  0  0
 18 22  1  0  0  0  0
 18 57  1  0  0  0  0
 18 58  1  0  0  0  0
 19 59  1  0  0  0  0
 19 60  1  0  0  0  0
 19 61  1  0  0  0  0
 20 62  1  0  0  0  0
 20 63  1  0  0  0  0
 20 64  1  0  0  0  0
 21 65  1  0  0  0  0
 21 66  1  0  0  0  0
 22 67  1  0  0  0  0
 22 68  1  0  0  0  0
 23 25  1  0  0  0  0
 24 26  1  0  0  0  0
 25 27  2  0  0  0  0
 25 28  1  0  0  0  0
 26 29  2  0  0  0  0
 26 30  1  0  0  0  0
 27 29  1  0  0  0  0
 27 69  1  0  0  0  0
 28 30  2  0  0  0  0
 28 70  1  0  0  0  0
 29 71  1  0  0  0  0
 30 72  1  0  0  0  0
M  END
> <PUBCHEM_COMPOUND_CID>
67057

> <PUBCHEM_COMPOUND_CANONICALIZED>
1

> <PUBCHEM_CACTVS_COMPLEXITY>
450

> <PUBCHEM_CACTVS_HBOND_ACCEPTOR>
4

> <PUBCHEM_CACTVS_HBOND_DONOR>
0

> <PUBCHEM_CACTVS_ROTATABLE_BOND>
18

> <PUBCHEM_CACTVS_SUBSKEYS>
AAADcfB4OAAAAAAAAAAAAAAAAAAAAAAAAAAwAAAAAAAAAAABAAAAGgAAAAAADQCgmAIyCIAABACIAiDSCAACAAAkAAAIiAEACMgIJjKANRiCMQAkwAEIqYeIyPCOQAAAAAAAAACAAAAAAAAAAAAAAAAAAA==

> <PUBCHEM_IUPAC_OPENEYE_NAME>
O4-(6-methylheptyl) O1-(8-methylnonyl) benzene-1,4-dicarboxylate

> <PUBCHEM_IUPAC_CAS_NAME>
benzene-1,4-dicarboxylic acid O4-(6-methylheptyl) ester O1-(8-methylnonyl) ester

> <PUBCHEM_IUPAC_NAME_MARKUP>
4-<I>O</I>-(6-methylheptyl) 1-<I>O</I>-(8-methylnonyl) benzene-1,4-dicarboxylate

> <PUBCHEM_IUPAC_NAME>
4-O-(6-methylheptyl) 1-O-(8-methylnonyl) benzene-1,4-dicarboxylate

> <PUBCHEM_IUPAC_SYSTEMATIC_NAME>
O4-(6-methylheptyl) O1-(8-methylnonyl) benzene-1,4-dicarboxylate

> <PUBCHEM_IUPAC_TRADITIONAL_NAME>
benzene-1,4-dicarboxylic acid O4-(6-methylheptyl) ester O1-(8-methylnonyl) ester

> <PUBCHEM_IUPAC_INCHI>
InChI=1S/C26H42O4/c1-21(2)13-9-6-5-7-11-19-29-25(27)23-15-17-24(18-16-23)26(28)30-20-12-8-10-14-22(3)4/h15-18,21-22H,5-14,19-20H2,1-4H3

> <PUBCHEM_IUPAC_INCHIKEY>
LWMZLERUOSRYNT-UHFFFAOYSA-N

> <PUBCHEM_XLOGP3>
10.4

> <PUBCHEM_EXACT_MASS>
418.30830982

> <PUBCHEM_MOLECULAR_FORMULA>
C26H42O4

> <PUBCHEM_MOLECULAR_WEIGHT>
418.6

> <PUBCHEM_SMILES>
CC(C)CCCCCCCOC(=O)C1=CC=C(C=C1)C(=O)OCCCCCC(C)C

> <PUBCHEM_OPENEYE_CAN_SMILES>
CC(C)CCCCCCCOC(=O)C1=CC=C(C=C1)C(=O)OCCCCCC(C)C

> <PUBCHEM_OPENEYE_ISO_SMILES>
CC(C)CCCCCCCOC(=O)C1=CC=C(C=C1)C(=O)OCCCCCC(C)C

> <PUBCHEM_CACTVS_TPSA>
52.6

> <PUBCHEM_MONOISOTOPIC_WEIGHT>
418.30830982

> <PUBCHEM_TOTAL_CHARGE>
0

> <PUBCHEM_HEAVY_ATOM_COUNT>
30

> <PUBCHEM_ATOM_DEF_STEREO_COUNT>
0

> <PUBCHEM_ATOM_UDEF_STEREO_COUNT>
0

> <PUBCHEM_BOND_DEF_STEREO_COUNT>
0

> <PUBCHEM_BOND_UDEF_STEREO_COUNT>
0

> <PUBCHEM_ISOTOPIC_ATOM_COUNT>
0

> <PUBCHEM_COMPONENT_COUNT>
1

> <PUBCHEM_CACTVS_TAUTO_COUNT>
-1

> <PUBCHEM_COORDINATE_TYPE>
1
5
255

> <PUBCHEM_BONDANNOTATIONS>
25  27  8
25  28  8
26  29  8
26  30  8
27  29  8
28  30  8

$$$$
