67061189
  -OEChem-04042512232D

 25 24  0     1  0  0  0  0  0999 V2000
    2.4004   -2.3404    0.0000 Na  0  3  0  0  0  0  0  0  0  0  0  0
    2.0000    2.3404    0.0000 Na  0  3  0  0  0  0  0  0  0  0  0  0
    2.8230   -1.4341    0.0000 O   0  5  0  0  0  0  0  0  0  0  0  0
    4.3928   -2.1661    0.0000 O   0  0  0  0  0  0  0  0  0  0  0  0
    2.9063    1.9178    0.0000 O   0  5  0  0  0  0  0  0  0  0  0  0
    2.1743    0.3481    0.0000 O   0  0  0  0  0  0  0  0  0  0  0  0
    5.6145    0.1513    0.0000 C   0  0  1  0  0  0  0  0  0  0  0  0
    5.8733    1.1173    0.0000 C   0  0  2  0  0  0  0  0  0  0  0  0
    5.1367    2.0999    0.0000 C   0  0  0  0  0  0  0  0  0  0  0  0
    4.2418   -0.4407    0.0000 C   0  0  1  0  0  0  0  0  0  0  0  0
    3.8998    0.4990    0.0000 C   0  0  2  0  0  0  0  0  0  0  0  0
    7.0134   -0.3575    0.0000 C   0  0  0  0  0  0  0  0  0  0  0  0
    7.2722    0.6085    0.0000 C   0  0  0  0  0  0  0  0  0  0  0  0
    3.8192   -1.3470    0.0000 C   0  0  0  0  0  0  0  0  0  0  0  0
    2.9935    0.9216    0.0000 C   0  0  0  0  0  0  0  0  0  0  0  0
    5.3945   -0.6697    0.0000 H   0  0  0  0  0  0  0  0  0  0  0  0
    6.0933    1.9383    0.0000 H   0  0  0  0  0  0  0  0  0  0  0  0
    5.4545    2.6322    0.0000 H   0  0  0  0  0  0  0  0  0  0  0  0
    4.5236    2.1918    0.0000 H   0  0  0  0  0  0  0  0  0  0  0  0
    4.6738   -0.8854    0.0000 H   0  0  0  0  0  0  0  0  0  0  0  0
    3.9409    1.1176    0.0000 H   0  0  0  0  0  0  0  0  0  0  0  0
    6.8185   -0.9460    0.0000 H   0  0  0  0  0  0  0  0  0  0  0  0
    7.6074   -0.5352    0.0000 H   0  0  0  0  0  0  0  0  0  0  0  0
    7.8662    0.4307    0.0000 H   0  0  0  0  0  0  0  0  0  0  0  0
    7.4672    1.1970    0.0000 H   0  0  0  0  0  0  0  0  0  0  0  0
  3 14  1  0  0  0  0
  4 14  2  0  0  0  0
  5 15  1  0  0  0  0
  6 15  2  0  0  0  0
  7  9  1  0  0  0  0
  7 10  1  0  0  0  0
  7 12  1  0  0  0  0
  7 16  1  1  0  0  0
  8  9  1  0  0  0  0
  8 11  1  0  0  0  0
  8 13  1  0  0  0  0
  8 17  1  6  0  0  0
  9 18  1  0  0  0  0
  9 19  1  0  0  0  0
 10 11  1  0  0  0  0
 10 14  1  6  0  0  0
 10 20  1  0  0  0  0
 11 15  1  6  0  0  0
 11 21  1  0  0  0  0
 12 13  1  0  0  0  0
 12 22  1  0  0  0  0
 12 23  1  0  0  0  0
 13 24  1  0  0  0  0
 13 25  1  0  0  0  0
M  CHG  4   1   1   2   1   3  -1   5  -1
M  END
> <PUBCHEM_COMPOUND_CID>
67061189

> <PUBCHEM_COMPOUND_CANONICALIZED>
1

> <PUBCHEM_CACTVS_COMPLEXITY>
223

> <PUBCHEM_CACTVS_HBOND_ACCEPTOR>
4

> <PUBCHEM_CACTVS_HBOND_DONOR>
0

> <PUBCHEM_CACTVS_ROTATABLE_BOND>
0

> <PUBCHEM_CACTVS_SUBSKEYS>
AAADccBwODAAAAAAAAAAAAAAAAAAAYMAAAAwAAAAAAAAAAAAAAAAGgAAAAAADQCAgAAACAAAAAAIAACQCAAAAAAAAAAAAAEAAAAAABIAAAAAAAAEAAAAAAHLyPCOgAAAAAAAAAAAAAQAACAAAQAACAAAAA==

> <PUBCHEM_IUPAC_OPENEYE_NAME>
disodium;(1S,2S,3R,4R)-norbornane-2,3-dicarboxylate

> <PUBCHEM_IUPAC_CAS_NAME>
disodium;(1S,2S,3R,4R)-bicyclo[2.2.1]heptane-2,3-dicarboxylate

> <PUBCHEM_IUPAC_NAME_MARKUP>
disodium;(1<I>S</I>,2<I>S</I>,3<I>R</I>,4<I>R</I>)-bicyclo[2.2.1]heptane-2,3-dicarboxylate

> <PUBCHEM_IUPAC_NAME>
disodium;(1S,2S,3R,4R)-bicyclo[2.2.1]heptane-2,3-dicarboxylate

> <PUBCHEM_IUPAC_SYSTEMATIC_NAME>
disodium;(1S,2S,3R,4R)-bicyclo[2.2.1]heptane-2,3-dicarboxylate

> <PUBCHEM_IUPAC_TRADITIONAL_NAME>
disodium;(1S,2S,3R,4R)-norbornane-2,3-dicarboxylate

> <PUBCHEM_IUPAC_INCHI>
InChI=1S/C9H12O4.2Na/c10-8(11)6-4-1-2-5(3-4)7(6)9(12)13;;/h4-7H,1-3H2,(H,10,11)(H,12,13);;/q;2*+1/p-2/t4-,5+,6-,7+;;

> <PUBCHEM_IUPAC_INCHIKEY>
FXDGCBFGSXNGQD-FAESFXMKSA-L

> <PUBCHEM_EXACT_MASS>
228.03744736

> <PUBCHEM_MOLECULAR_FORMULA>
C9H10Na2O4

> <PUBCHEM_MOLECULAR_WEIGHT>
228.15

> <PUBCHEM_SMILES>
C1C[C@H]2C[C@@H]1[C@H]([C@H]2C(=O)[O-])C(=O)[O-].[Na+].[Na+]

> <PUBCHEM_OPENEYE_CAN_SMILES>
C1CC2CC1C(C2C(=O)[O-])C(=O)[O-].[Na+].[Na+]

> <PUBCHEM_OPENEYE_ISO_SMILES>
C1C[C@H]2C[C@@H]1[C@H]([C@H]2C(=O)[O-])C(=O)[O-].[Na+].[Na+]

> <PUBCHEM_CACTVS_TPSA>
80.3

> <PUBCHEM_MONOISOTOPIC_WEIGHT>
228.03744736

> <PUBCHEM_TOTAL_CHARGE>
0

> <PUBCHEM_HEAVY_ATOM_COUNT>
15

> <PUBCHEM_ATOM_DEF_STEREO_COUNT>
4

> <PUBCHEM_ATOM_UDEF_STEREO_COUNT>
0

> <PUBCHEM_BOND_DEF_STEREO_COUNT>
0

> <PUBCHEM_BOND_UDEF_STEREO_COUNT>
0

> <PUBCHEM_ISOTOPIC_ATOM_COUNT>
0

> <PUBCHEM_COMPONENT_COUNT>
3

> <PUBCHEM_CACTVS_TAUTO_COUNT>
-1

> <PUBCHEM_COORDINATE_TYPE>
1
5
255

> <PUBCHEM_BONDANNOTATIONS>
10  14  6
11  15  6
7  16  5
8  17  6

$$$$
