68162
  -OEChem-04042505342D

 17 17  0     0  0  0  0  0  0999 V2000
    3.1235   -1.0953    0.0000 O   0  0  0  0  0  0  0  0  0  0  0  0
    4.2470    0.3135    0.0000 O   0  0  0  0  0  0  0  0  0  0  0  0
    2.0000    0.3135    0.0000 C   0  0  0  0  0  0  0  0  0  0  0  0
    2.6235    1.0953    0.0000 C   0  0  0  0  0  0  0  0  0  0  0  0
    2.2225   -0.6614    0.0000 C   0  0  0  0  0  0  0  0  0  0  0  0
    3.6235    1.0953    0.0000 C   0  0  0  0  0  0  0  0  0  0  0  0
    4.0245   -0.6614    0.0000 C   0  0  0  0  0  0  0  0  0  0  0  0
    1.6134    0.7982    0.0000 H   0  0  0  0  0  0  0  0  0  0  0  0
    1.4414    0.0445    0.0000 H   0  0  0  0  0  0  0  0  0  0  0  0
    2.7614    1.6998    0.0000 H   0  0  0  0  0  0  0  0  0  0  0  0
    2.0649    1.3643    0.0000 H   0  0  0  0  0  0  0  0  0  0  0  0
    1.6025   -0.6614    0.0000 H   0  0  0  0  0  0  0  0  0  0  0  0
    2.0846   -1.2659    0.0000 H   0  0  0  0  0  0  0  0  0  0  0  0
    4.1821    1.3643    0.0000 H   0  0  0  0  0  0  0  0  0  0  0  0
    3.4855    1.6998    0.0000 H   0  0  0  0  0  0  0  0  0  0  0  0
    4.1624   -1.2659    0.0000 H   0  0  0  0  0  0  0  0  0  0  0  0
    4.6445   -0.6614    0.0000 H   0  0  0  0  0  0  0  0  0  0  0  0
  1  5  1  0  0  0  0
  1  7  1  0  0  0  0
  2  6  1  0  0  0  0
  2  7  1  0  0  0  0
  3  4  1  0  0  0  0
  3  5  1  0  0  0  0
  3  8  1  0  0  0  0
  3  9  1  0  0  0  0
  4  6  1  0  0  0  0
  4 10  1  0  0  0  0
  4 11  1  0  0  0  0
  5 12  1  0  0  0  0
  5 13  1  0  0  0  0
  6 14  1  0  0  0  0
  6 15  1  0  0  0  0
  7 16  1  0  0  0  0
  7 17  1  0  0  0  0
M  END
> <PUBCHEM_COMPOUND_CID>
68162

> <PUBCHEM_COMPOUND_CANONICALIZED>
1

> <PUBCHEM_CACTVS_COMPLEXITY>
39.3

> <PUBCHEM_CACTVS_HBOND_ACCEPTOR>
2

> <PUBCHEM_CACTVS_HBOND_DONOR>
0

> <PUBCHEM_CACTVS_ROTATABLE_BOND>
0

> <PUBCHEM_CACTVS_SUBSKEYS>
AAADccBgMAAAAAAAAAAAAAAAAAAAAAAAAAAAAAAABIAAAAAAAAAAGgAAAAAACACggAMACAAABAAAAAAAAAAAAAAAAAAAAAAAAAAQAAAAAAAgAAAEAAAEAABAAAAAAAAAAAAAAAAAAAAAAAAAAAAAAAAAAA==

> <PUBCHEM_IUPAC_OPENEYE_NAME>
1,3-dioxepane

> <PUBCHEM_IUPAC_CAS_NAME>
1,3-dioxepane

> <PUBCHEM_IUPAC_NAME_MARKUP>
1,3-dioxepane

> <PUBCHEM_IUPAC_NAME>
1,3-dioxepane

> <PUBCHEM_IUPAC_SYSTEMATIC_NAME>
1,3-dioxepane

> <PUBCHEM_IUPAC_TRADITIONAL_NAME>
1,3-dioxepane

> <PUBCHEM_IUPAC_INCHI>
InChI=1S/C5H10O2/c1-2-4-7-5-6-3-1/h1-5H2

> <PUBCHEM_IUPAC_INCHIKEY>
CZLMRJZAHXYRIX-UHFFFAOYSA-N

> <PUBCHEM_XLOGP3>
0.4

> <PUBCHEM_EXACT_MASS>
102.068079557

> <PUBCHEM_MOLECULAR_FORMULA>
C5H10O2

> <PUBCHEM_MOLECULAR_WEIGHT>
102.13

> <PUBCHEM_SMILES>
C1CCOCOC1

> <PUBCHEM_OPENEYE_CAN_SMILES>
C1CCOCOC1

> <PUBCHEM_OPENEYE_ISO_SMILES>
C1CCOCOC1

> <PUBCHEM_CACTVS_TPSA>
18.5

> <PUBCHEM_MONOISOTOPIC_WEIGHT>
102.068079557

> <PUBCHEM_TOTAL_CHARGE>
0

> <PUBCHEM_HEAVY_ATOM_COUNT>
7

> <PUBCHEM_ATOM_DEF_STEREO_COUNT>
0

> <PUBCHEM_ATOM_UDEF_STEREO_COUNT>
0

> <PUBCHEM_BOND_DEF_STEREO_COUNT>
0

> <PUBCHEM_BOND_UDEF_STEREO_COUNT>
0

> <PUBCHEM_ISOTOPIC_ATOM_COUNT>
0

> <PUBCHEM_COMPONENT_COUNT>
1

> <PUBCHEM_CACTVS_TAUTO_COUNT>
-1

> <PUBCHEM_COORDINATE_TYPE>
1
5
255

$$$$
