6850817
  -OEChem-04042506022D

 87 88  0     0  0  0  0  0  0999 V2000
    5.4641   -1.5000    0.0000 P   0  0  0  0  0  0  0  0  0  0  0  0
    6.3301   -1.0000    0.0000 O   0  0  0  0  0  0  0  0  0  0  0  0
    4.5981   -1.0000    0.0000 O   0  0  0  0  0  0  0  0  0  0  0  0
    5.4641   -2.5000    0.0000 O   0  0  0  0  0  0  0  0  0  0  0  0
    8.0622   -0.0000    0.0000 C   0  0  0  0  0  0  0  0  0  0  0  0
    2.8660   -0.0000    0.0000 C   0  0  0  0  0  0  0  0  0  0  0  0
    9.7942   -3.0000    0.0000 C   0  0  0  0  0  0  0  0  0  0  0  0
    4.5981    3.0000    0.0000 C   0  0  0  0  0  0  0  0  0  0  0  0
    8.0622   -1.0000    0.0000 C   0  0  0  0  0  0  0  0  0  0  0  0
    3.7320    0.5000    0.0000 C   0  0  0  0  0  0  0  0  0  0  0  0
    8.9282   -2.5000    0.0000 C   0  0  0  0  0  0  0  0  0  0  0  0
    4.5981    2.0000    0.0000 C   0  0  0  0  0  0  0  0  0  0  0  0
    8.9282   -1.5000    0.0000 C   0  0  0  0  0  0  0  0  0  0  0  0
    3.7320    1.5000    0.0000 C   0  0  0  0  0  0  0  0  0  0  0  0
    7.1962   -1.5000    0.0000 C   0  0  0  0  0  0  0  0  0  0  0  0
    4.5981   -0.0000    0.0000 C   0  0  0  0  0  0  0  0  0  0  0  0
    8.0622   -3.0000    0.0000 C   0  0  0  0  0  0  0  0  0  0  0  0
    5.4641    1.5000    0.0000 C   0  0  0  0  0  0  0  0  0  0  0  0
    7.1962   -2.5000    0.0000 C   0  0  0  0  0  0  0  0  0  0  0  0
    5.4641    0.5000    0.0000 C   0  0  0  0  0  0  0  0  0  0  0  0
    8.0622    1.0000    0.0000 C   0  0  0  0  0  0  0  0  0  0  0  0
    9.0622   -0.0000    0.0000 C   0  0  0  0  0  0  0  0  0  0  0  0
    7.0622   -0.0000    0.0000 C   0  0  0  0  0  0  0  0  0  0  0  0
    2.0000   -0.5000    0.0000 C   0  0  0  0  0  0  0  0  0  0  0  0
    2.3660    0.8660    0.0000 C   0  0  0  0  0  0  0  0  0  0  0  0
    3.3660   -0.8660    0.0000 C   0  0  0  0  0  0  0  0  0  0  0  0
   10.6603   -3.5000    0.0000 C   0  0  0  0  0  0  0  0  0  0  0  0
    9.2942   -3.8660    0.0000 C   0  0  0  0  0  0  0  0  0  0  0  0
   10.2942   -2.1340    0.0000 C   0  0  0  0  0  0  0  0  0  0  0  0
    4.5981    4.0000    0.0000 C   0  0  0  0  0  0  0  0  0  0  0  0
    5.5981    3.0000    0.0000 C   0  0  0  0  0  0  0  0  0  0  0  0
    3.5981    3.0000    0.0000 C   0  0  0  0  0  0  0  0  0  0  0  0
    6.3301   -3.0000    0.0000 C   0  0  0  0  0  0  0  0  0  0  0  0
    6.3301    0.0000    0.0000 C   0  0  0  0  0  0  0  0  0  0  0  0
    4.5981   -3.0000    0.0000 C   0  0  0  0  0  0  0  0  0  0  0  0
    4.5981   -4.0000    0.0000 C   0  0  0  0  0  0  0  0  0  0  0  0
    9.4651   -1.1900    0.0000 H   0  0  0  0  0  0  0  0  0  0  0  0
    3.1951    1.8100    0.0000 H   0  0  0  0  0  0  0  0  0  0  0  0
    8.0622   -3.6200    0.0000 H   0  0  0  0  0  0  0  0  0  0  0  0
    6.0010    1.8100    0.0000 H   0  0  0  0  0  0  0  0  0  0  0  0
    8.6822    1.0000    0.0000 H   0  0  0  0  0  0  0  0  0  0  0  0
    8.0622    1.6200    0.0000 H   0  0  0  0  0  0  0  0  0  0  0  0
    7.4422    1.0000    0.0000 H   0  0  0  0  0  0  0  0  0  0  0  0
    9.0622   -0.6200    0.0000 H   0  0  0  0  0  0  0  0  0  0  0  0
    9.6822   -0.0000    0.0000 H   0  0  0  0  0  0  0  0  0  0  0  0
    9.0622    0.6200    0.0000 H   0  0  0  0  0  0  0  0  0  0  0  0
    7.0622    0.6200    0.0000 H   0  0  0  0  0  0  0  0  0  0  0  0
    6.4422   -0.0000    0.0000 H   0  0  0  0  0  0  0  0  0  0  0  0
    7.0622   -0.6200    0.0000 H   0  0  0  0  0  0  0  0  0  0  0  0
    1.6900    0.0369    0.0000 H   0  0  0  0  0  0  0  0  0  0  0  0
    1.4631   -0.8100    0.0000 H   0  0  0  0  0  0  0  0  0  0  0  0
    2.3100   -1.0369    0.0000 H   0  0  0  0  0  0  0  0  0  0  0  0
    2.9030    1.1760    0.0000 H   0  0  0  0  0  0  0  0  0  0  0  0
    2.0560    1.4030    0.0000 H   0  0  0  0  0  0  0  0  0  0  0  0
    1.8291    0.5560    0.0000 H   0  0  0  0  0  0  0  0  0  0  0  0
    2.8291   -1.1760    0.0000 H   0  0  0  0  0  0  0  0  0  0  0  0
    3.6760   -1.4030    0.0000 H   0  0  0  0  0  0  0  0  0  0  0  0
    3.9030   -0.5560    0.0000 H   0  0  0  0  0  0  0  0  0  0  0  0
   10.3503   -4.0369    0.0000 H   0  0  0  0  0  0  0  0  0  0  0  0
   11.1972   -3.8100    0.0000 H   0  0  0  0  0  0  0  0  0  0  0  0
   10.9703   -2.9631    0.0000 H   0  0  0  0  0  0  0  0  0  0  0  0
    8.7573   -3.5560    0.0000 H   0  0  0  0  0  0  0  0  0  0  0  0
    8.9842   -4.4030    0.0000 H   0  0  0  0  0  0  0  0  0  0  0  0
    9.8312   -4.1760    0.0000 H   0  0  0  0  0  0  0  0  0  0  0  0
   10.8312   -2.4440    0.0000 H   0  0  0  0  0  0  0  0  0  0  0  0
   10.6042   -1.5970    0.0000 H   0  0  0  0  0  0  0  0  0  0  0  0
    9.7573   -1.8240    0.0000 H   0  0  0  0  0  0  0  0  0  0  0  0
    5.2181    4.0000    0.0000 H   0  0  0  0  0  0  0  0  0  0  0  0
    4.5981    4.6200    0.0000 H   0  0  0  0  0  0  0  0  0  0  0  0
    3.9781    4.0000    0.0000 H   0  0  0  0  0  0  0  0  0  0  0  0
    5.5981    2.3800    0.0000 H   0  0  0  0  0  0  0  0  0  0  0  0
    6.2181    3.0000    0.0000 H   0  0  0  0  0  0  0  0  0  0  0  0
    5.5981    3.6200    0.0000 H   0  0  0  0  0  0  0  0  0  0  0  0
    3.5981    3.6200    0.0000 H   0  0  0  0  0  0  0  0  0  0  0  0
    2.9781    3.0000    0.0000 H   0  0  0  0  0  0  0  0  0  0  0  0
    3.5981    2.3800    0.0000 H   0  0  0  0  0  0  0  0  0  0  0  0
    6.0201   -2.4631    0.0000 H   0  0  0  0  0  0  0  0  0  0  0  0
    5.7932   -3.3100    0.0000 H   0  0  0  0  0  0  0  0  0  0  0  0
    6.6401   -3.5369    0.0000 H   0  0  0  0  0  0  0  0  0  0  0  0
    6.0201   -0.5369    0.0000 H   0  0  0  0  0  0  0  0  0  0  0  0
    6.8671   -0.3100    0.0000 H   0  0  0  0  0  0  0  0  0  0  0  0
    6.6401    0.5369    0.0000 H   0  0  0  0  0  0  0  0  0  0  0  0
    4.3860   -2.4174    0.0000 H   0  0  0  0  0  0  0  0  0  0  0  0
    3.9875   -3.1077    0.0000 H   0  0  0  0  0  0  0  0  0  0  0  0
    3.9781   -4.0000    0.0000 H   0  0  0  0  0  0  0  0  0  0  0  0
    4.5981   -4.6200    0.0000 H   0  0  0  0  0  0  0  0  0  0  0  0
    5.2181   -4.0000    0.0000 H   0  0  0  0  0  0  0  0  0  0  0  0
  1  2  1  0  0  0  0
  1  3  1  0  0  0  0
  1  4  1  0  0  0  0
  2 15  1  0  0  0  0
  3 16  1  0  0  0  0
  4 35  1  0  0  0  0
  5  9  1  0  0  0  0
  5 21  1  0  0  0  0
  5 22  1  0  0  0  0
  5 23  1  0  0  0  0
  6 10  1  0  0  0  0
  6 24  1  0  0  0  0
  6 25  1  0  0  0  0
  6 26  1  0  0  0  0
  7 11  1  0  0  0  0
  7 27  1  0  0  0  0
  7 28  1  0  0  0  0
  7 29  1  0  0  0  0
  8 12  1  0  0  0  0
  8 30  1  0  0  0  0
  8 31  1  0  0  0  0
  8 32  1  0  0  0  0
  9 13  1  0  0  0  0
  9 15  2  0  0  0  0
 10 14  1  0  0  0  0
 10 16  2  0  0  0  0
 11 13  2  0  0  0  0
 11 17  1  0  0  0  0
 12 14  2  0  0  0  0
 12 18  1  0  0  0  0
 13 37  1  0  0  0  0
 14 38  1  0  0  0  0
 15 19  1  0  0  0  0
 16 20  1  0  0  0  0
 17 19  2  0  0  0  0
 17 39  1  0  0  0  0
 18 20  2  0  0  0  0
 18 40  1  0  0  0  0
 19 33  1  0  0  0  0
 20 34  1  0  0  0  0
 21 41  1  0  0  0  0
 21 42  1  0  0  0  0
 21 43  1  0  0  0  0
 22 44  1  0  0  0  0
 22 45  1  0  0  0  0
 22 46  1  0  0  0  0
 23 47  1  0  0  0  0
 23 48  1  0  0  0  0
 23 49  1  0  0  0  0
 24 50  1  0  0  0  0
 24 51  1  0  0  0  0
 24 52  1  0  0  0  0
 25 53  1  0  0  0  0
 25 54  1  0  0  0  0
 25 55  1  0  0  0  0
 26 56  1  0  0  0  0
 26 57  1  0  0  0  0
 26 58  1  0  0  0  0
 27 59  1  0  0  0  0
 27 60  1  0  0  0  0
 27 61  1  0  0  0  0
 28 62  1  0  0  0  0
 28 63  1  0  0  0  0
 28 64  1  0  0  0  0
 29 65  1  0  0  0  0
 29 66  1  0  0  0  0
 29 67  1  0  0  0  0
 30 68  1  0  0  0  0
 30 69  1  0  0  0  0
 30 70  1  0  0  0  0
 31 71  1  0  0  0  0
 31 72  1  0  0  0  0
 31 73  1  0  0  0  0
 32 74  1  0  0  0  0
 32 75  1  0  0  0  0
 32 76  1  0  0  0  0
 33 77  1  0  0  0  0
 33 78  1  0  0  0  0
 33 79  1  0  0  0  0
 34 80  1  0  0  0  0
 34 81  1  0  0  0  0
 34 82  1  0  0  0  0
 35 36  1  0  0  0  0
 35 83  1  0  0  0  0
 35 84  1  0  0  0  0
 36 85  1  0  0  0  0
 36 86  1  0  0  0  0
 36 87  1  0  0  0  0
M  END
> <PUBCHEM_COMPOUND_CID>
6850817

> <PUBCHEM_COMPOUND_CANONICALIZED>
1

> <PUBCHEM_CACTVS_COMPLEXITY>
621

> <PUBCHEM_CACTVS_HBOND_ACCEPTOR>
3

> <PUBCHEM_CACTVS_HBOND_DONOR>
0

> <PUBCHEM_CACTVS_ROTATABLE_BOND>
10

> <PUBCHEM_CACTVS_SUBSKEYS>
AAADcfB8MAIAAAAAAAAAAAAAAAAAAAAAAAAwYAAAAAAAAAABQAAAGgAAACAADgSgmAIyBoAAARCAAiBCAAACAAAgIAAAiAAECIgIJiKAERKAMAAkwBEIiAeAwPAPoAACAAAIAABAAAQAABAAAAAAAAAAAA==

> <PUBCHEM_IUPAC_OPENEYE_NAME>
bis(2,4-ditert-butyl-6-methyl-phenyl) ethyl phosphite

> <PUBCHEM_IUPAC_CAS_NAME>
phosphorous acid bis(2,4-ditert-butyl-6-methylphenyl) ethyl ester

> <PUBCHEM_IUPAC_NAME_MARKUP>
bis(2,4-di<I>tert</I>-butyl-6-methylphenyl) ethyl phosphite

> <PUBCHEM_IUPAC_NAME>
bis(2,4-ditert-butyl-6-methylphenyl) ethyl phosphite

> <PUBCHEM_IUPAC_SYSTEMATIC_NAME>
bis(2,4-ditert-butyl-6-methyl-phenyl) ethyl phosphite

> <PUBCHEM_IUPAC_TRADITIONAL_NAME>
phosphorous acid bis(2,4-ditert-butyl-6-methyl-phenyl) ethyl ester

> <PUBCHEM_IUPAC_INCHI>
InChI=1S/C32H51O3P/c1-16-33-36(34-27-21(2)17-23(29(4,5)6)19-25(27)31(10,11)12)35-28-22(3)18-24(30(7,8)9)20-26(28)32(13,14)15/h17-20H,16H2,1-15H3

> <PUBCHEM_IUPAC_INCHIKEY>
ZEFSGHVBJCEKAZ-UHFFFAOYSA-N

> <PUBCHEM_XLOGP3_AA>
11.5

> <PUBCHEM_EXACT_MASS>
514.35758248

> <PUBCHEM_MOLECULAR_FORMULA>
C32H51O3P

> <PUBCHEM_MOLECULAR_WEIGHT>
514.7

> <PUBCHEM_SMILES>
CCOP(OC1=C(C=C(C=C1C)C(C)(C)C)C(C)(C)C)OC2=C(C=C(C=C2C)C(C)(C)C)C(C)(C)C

> <PUBCHEM_OPENEYE_CAN_SMILES>
CCOP(OC1=C(C=C(C=C1C)C(C)(C)C)C(C)(C)C)OC2=C(C=C(C=C2C)C(C)(C)C)C(C)(C)C

> <PUBCHEM_OPENEYE_ISO_SMILES>
CCOP(OC1=C(C=C(C=C1C)C(C)(C)C)C(C)(C)C)OC2=C(C=C(C=C2C)C(C)(C)C)C(C)(C)C

> <PUBCHEM_CACTVS_TPSA>
27.7

> <PUBCHEM_MONOISOTOPIC_WEIGHT>
514.35758248

> <PUBCHEM_TOTAL_CHARGE>
0

> <PUBCHEM_HEAVY_ATOM_COUNT>
36

> <PUBCHEM_ATOM_DEF_STEREO_COUNT>
0

> <PUBCHEM_ATOM_UDEF_STEREO_COUNT>
0

> <PUBCHEM_BOND_DEF_STEREO_COUNT>
0

> <PUBCHEM_BOND_UDEF_STEREO_COUNT>
0

> <PUBCHEM_ISOTOPIC_ATOM_COUNT>
0

> <PUBCHEM_COMPONENT_COUNT>
1

> <PUBCHEM_CACTVS_TAUTO_COUNT>
-1

> <PUBCHEM_COORDINATE_TYPE>
1
5
255

> <PUBCHEM_BONDANNOTATIONS>
10  14  8
10  16  8
11  13  8
11  17  8
12  14  8
12  18  8
15  19  8
16  20  8
17  19  8
18  20  8
9  13  8
9  15  8

$$$$
