6850816
  -OEChem-04042505422D

 96 96  0     0  0  0  0  0  0999 V2000
   12.3923    5.0950    0.0000 S   0  0  0  0  0  0  0  0  0  0  0  0
   15.8564    2.0950    0.0000 S   0  0  0  0  0  0  0  0  0  0  0  0
   14.9904    6.5950    0.0000 O   0  0  0  0  0  0  0  0  0  0  0  0
    7.1962    5.0950    0.0000 C   0  0  0  0  0  0  0  0  0  0  0  0
   18.4545   -2.4050    0.0000 C   0  0  0  0  0  0  0  0  0  0  0  0
    6.3301    5.5950    0.0000 C   0  0  0  0  0  0  0  0  0  0  0  0
   18.4545   -3.4050    0.0000 C   0  0  0  0  0  0  0  0  0  0  0  0
    8.0622    5.5950    0.0000 C   0  0  0  0  0  0  0  0  0  0  0  0
   17.5885   -1.9050    0.0000 C   0  0  0  0  0  0  0  0  0  0  0  0
    5.4641    5.0950    0.0000 C   0  0  0  0  0  0  0  0  0  0  0  0
   19.3205   -3.9050    0.0000 C   0  0  0  0  0  0  0  0  0  0  0  0
    8.9282    5.0950    0.0000 C   0  0  0  0  0  0  0  0  0  0  0  0
   17.5885   -0.9050    0.0000 C   0  0  0  0  0  0  0  0  0  0  0  0
    4.5981    5.5950    0.0000 C   0  0  0  0  0  0  0  0  0  0  0  0
   19.3205   -4.9050    0.0000 C   0  0  0  0  0  0  0  0  0  0  0  0
    9.7942    5.5950    0.0000 C   0  0  0  0  0  0  0  0  0  0  0  0
   16.7224   -0.4050    0.0000 C   0  0  0  0  0  0  0  0  0  0  0  0
    3.7320    5.0950    0.0000 C   0  0  0  0  0  0  0  0  0  0  0  0
   20.1865   -5.4050    0.0000 C   0  0  0  0  0  0  0  0  0  0  0  0
   10.6603    5.0950    0.0000 C   0  0  0  0  0  0  0  0  0  0  0  0
   16.7224    0.5950    0.0000 C   0  0  0  0  0  0  0  0  0  0  0  0
    2.8660    5.5950    0.0000 C   0  0  0  0  0  0  0  0  0  0  0  0
   20.1865   -6.4050    0.0000 C   0  0  0  0  0  0  0  0  0  0  0  0
   11.5263    5.5950    0.0000 C   0  0  0  0  0  0  0  0  0  0  0  0
   15.8564    1.0950    0.0000 C   0  0  0  0  0  0  0  0  0  0  0  0
    2.0000    5.0950    0.0000 C   0  0  0  0  0  0  0  0  0  0  0  0
   21.0526   -6.9050    0.0000 C   0  0  0  0  0  0  0  0  0  0  0  0
   13.2583    5.5950    0.0000 C   0  0  0  0  0  0  0  0  0  0  0  0
   14.9904    2.5950    0.0000 C   0  0  0  0  0  0  0  0  0  0  0  0
   14.1244    5.0950    0.0000 C   0  0  0  0  0  0  0  0  0  0  0  0
   14.9904    3.5950    0.0000 C   0  0  0  0  0  0  0  0  0  0  0  0
   14.1244    4.0950    0.0000 C   0  0  0  0  0  0  0  0  0  0  0  0
   14.9904    5.5950    0.0000 C   0  0  0  0  0  0  0  0  0  0  0  0
   15.8564    4.0950    0.0000 C   0  0  0  0  0  0  0  0  0  0  0  0
   15.8564    5.0950    0.0000 C   0  0  0  0  0  0  0  0  0  0  0  0
   16.7224    5.5950    0.0000 C   0  0  0  0  0  0  0  0  0  0  0  0
    6.7976    4.6200    0.0000 H   0  0  0  0  0  0  0  0  0  0  0  0
    7.5947    4.6200    0.0000 H   0  0  0  0  0  0  0  0  0  0  0  0
   19.0651   -2.5127    0.0000 H   0  0  0  0  0  0  0  0  0  0  0  0
   18.6665   -1.8224    0.0000 H   0  0  0  0  0  0  0  0  0  0  0  0
    6.7287    6.0700    0.0000 H   0  0  0  0  0  0  0  0  0  0  0  0
    5.9316    6.0700    0.0000 H   0  0  0  0  0  0  0  0  0  0  0  0
    8.4607    6.0700    0.0000 H   0  0  0  0  0  0  0  0  0  0  0  0
    7.6636    6.0700    0.0000 H   0  0  0  0  0  0  0  0  0  0  0  0
   17.8439   -3.2973    0.0000 H   0  0  0  0  0  0  0  0  0  0  0  0
   18.2424   -3.9876    0.0000 H   0  0  0  0  0  0  0  0  0  0  0  0
   16.9779   -1.7973    0.0000 H   0  0  0  0  0  0  0  0  0  0  0  0
   17.3764   -2.4876    0.0000 H   0  0  0  0  0  0  0  0  0  0  0  0
    5.0656    4.6200    0.0000 H   0  0  0  0  0  0  0  0  0  0  0  0
    5.8626    4.6200    0.0000 H   0  0  0  0  0  0  0  0  0  0  0  0
   19.9311   -4.0127    0.0000 H   0  0  0  0  0  0  0  0  0  0  0  0
   19.5326   -3.3224    0.0000 H   0  0  0  0  0  0  0  0  0  0  0  0
    8.5297    4.6200    0.0000 H   0  0  0  0  0  0  0  0  0  0  0  0
    9.3267    4.6200    0.0000 H   0  0  0  0  0  0  0  0  0  0  0  0
   18.1990   -1.0127    0.0000 H   0  0  0  0  0  0  0  0  0  0  0  0
   17.8005   -0.3224    0.0000 H   0  0  0  0  0  0  0  0  0  0  0  0
    4.9966    6.0700    0.0000 H   0  0  0  0  0  0  0  0  0  0  0  0
    4.1996    6.0700    0.0000 H   0  0  0  0  0  0  0  0  0  0  0  0
   18.7099   -4.7973    0.0000 H   0  0  0  0  0  0  0  0  0  0  0  0
   19.1085   -5.4876    0.0000 H   0  0  0  0  0  0  0  0  0  0  0  0
   10.1928    6.0700    0.0000 H   0  0  0  0  0  0  0  0  0  0  0  0
    9.3957    6.0700    0.0000 H   0  0  0  0  0  0  0  0  0  0  0  0
   16.1119   -0.2973    0.0000 H   0  0  0  0  0  0  0  0  0  0  0  0
   16.5104   -0.9876    0.0000 H   0  0  0  0  0  0  0  0  0  0  0  0
    3.3335    4.6200    0.0000 H   0  0  0  0  0  0  0  0  0  0  0  0
    4.1306    4.6200    0.0000 H   0  0  0  0  0  0  0  0  0  0  0  0
   20.7971   -5.5127    0.0000 H   0  0  0  0  0  0  0  0  0  0  0  0
   20.3986   -4.8224    0.0000 H   0  0  0  0  0  0  0  0  0  0  0  0
   10.2617    4.6200    0.0000 H   0  0  0  0  0  0  0  0  0  0  0  0
   11.0588    4.6200    0.0000 H   0  0  0  0  0  0  0  0  0  0  0  0
   17.3330    0.4873    0.0000 H   0  0  0  0  0  0  0  0  0  0  0  0
   16.9345    1.1776    0.0000 H   0  0  0  0  0  0  0  0  0  0  0  0
    3.2646    6.0700    0.0000 H   0  0  0  0  0  0  0  0  0  0  0  0
    2.4675    6.0700    0.0000 H   0  0  0  0  0  0  0  0  0  0  0  0
   19.5760   -6.2973    0.0000 H   0  0  0  0  0  0  0  0  0  0  0  0
   19.9745   -6.9876    0.0000 H   0  0  0  0  0  0  0  0  0  0  0  0
   11.9248    6.0700    0.0000 H   0  0  0  0  0  0  0  0  0  0  0  0
   11.1278    6.0700    0.0000 H   0  0  0  0  0  0  0  0  0  0  0  0
   15.2458    1.2027    0.0000 H   0  0  0  0  0  0  0  0  0  0  0  0
   15.6444    0.5124    0.0000 H   0  0  0  0  0  0  0  0  0  0  0  0
    1.6900    5.6319    0.0000 H   0  0  0  0  0  0  0  0  0  0  0  0
    1.4631    4.7850    0.0000 H   0  0  0  0  0  0  0  0  0  0  0  0
    2.3100    4.5581    0.0000 H   0  0  0  0  0  0  0  0  0  0  0  0
   20.7426   -7.4419    0.0000 H   0  0  0  0  0  0  0  0  0  0  0  0
   21.5895   -7.2150    0.0000 H   0  0  0  0  0  0  0  0  0  0  0  0
   21.3626   -6.3681    0.0000 H   0  0  0  0  0  0  0  0  0  0  0  0
   13.6569    6.0700    0.0000 H   0  0  0  0  0  0  0  0  0  0  0  0
   12.8598    6.0700    0.0000 H   0  0  0  0  0  0  0  0  0  0  0  0
   14.3798    2.7027    0.0000 H   0  0  0  0  0  0  0  0  0  0  0  0
   14.7783    2.0124    0.0000 H   0  0  0  0  0  0  0  0  0  0  0  0
   13.5874    3.7850    0.0000 H   0  0  0  0  0  0  0  0  0  0  0  0
   16.3933    3.7850    0.0000 H   0  0  0  0  0  0  0  0  0  0  0  0
   17.0324    5.0581    0.0000 H   0  0  0  0  0  0  0  0  0  0  0  0
   17.2594    5.9050    0.0000 H   0  0  0  0  0  0  0  0  0  0  0  0
   16.4124    6.1319    0.0000 H   0  0  0  0  0  0  0  0  0  0  0  0
   15.5273    6.9050    0.0000 H   0  0  0  0  0  0  0  0  0  0  0  0
  1 24  1  0  0  0  0
  1 28  1  0  0  0  0
  2 25  1  0  0  0  0
  2 29  1  0  0  0  0
  3 33  1  0  0  0  0
  3 96  1  0  0  0  0
  4  6  1  0  0  0  0
  4  8  1  0  0  0  0
  4 37  1  0  0  0  0
  4 38  1  0  0  0  0
  5  7  1  0  0  0  0
  5  9  1  0  0  0  0
  5 39  1  0  0  0  0
  5 40  1  0  0  0  0
  6 10  1  0  0  0  0
  6 41  1  0  0  0  0
  6 42  1  0  0  0  0
  7 11  1  0  0  0  0
  7 45  1  0  0  0  0
  7 46  1  0  0  0  0
  8 12  1  0  0  0  0
  8 43  1  0  0  0  0
  8 44  1  0  0  0  0
  9 13  1  0  0  0  0
  9 47  1  0  0  0  0
  9 48  1  0  0  0  0
 10 14  1  0  0  0  0
 10 49  1  0  0  0  0
 10 50  1  0  0  0  0
 11 15  1  0  0  0  0
 11 51  1  0  0  0  0
 11 52  1  0  0  0  0
 12 16  1  0  0  0  0
 12 53  1  0  0  0  0
 12 54  1  0  0  0  0
 13 17  1  0  0  0  0
 13 55  1  0  0  0  0
 13 56  1  0  0  0  0
 14 18  1  0  0  0  0
 14 57  1  0  0  0  0
 14 58  1  0  0  0  0
 15 19  1  0  0  0  0
 15 59  1  0  0  0  0
 15 60  1  0  0  0  0
 16 20  1  0  0  0  0
 16 61  1  0  0  0  0
 16 62  1  0  0  0  0
 17 21  1  0  0  0  0
 17 63  1  0  0  0  0
 17 64  1  0  0  0  0
 18 22  1  0  0  0  0
 18 65  1  0  0  0  0
 18 66  1  0  0  0  0
 19 23  1  0  0  0  0
 19 67  1  0  0  0  0
 19 68  1  0  0  0  0
 20 24  1  0  0  0  0
 20 69  1  0  0  0  0
 20 70  1  0  0  0  0
 21 25  1  0  0  0  0
 21 71  1  0  0  0  0
 21 72  1  0  0  0  0
 22 26  1  0  0  0  0
 22 73  1  0  0  0  0
 22 74  1  0  0  0  0
 23 27  1  0  0  0  0
 23 75  1  0  0  0  0
 23 76  1  0  0  0  0
 24 77  1  0  0  0  0
 24 78  1  0  0  0  0
 25 79  1  0  0  0  0
 25 80  1  0  0  0  0
 26 81  1  0  0  0  0
 26 82  1  0  0  0  0
 26 83  1  0  0  0  0
 27 84  1  0  0  0  0
 27 85  1  0  0  0  0
 27 86  1  0  0  0  0
 28 30  1  0  0  0  0
 28 87  1  0  0  0  0
 28 88  1  0  0  0  0
 29 31  1  0  0  0  0
 29 89  1  0  0  0  0
 29 90  1  0  0  0  0
 30 32  1  0  0  0  0
 30 33  2  0  0  0  0
 31 32  2  0  0  0  0
 31 34  1  0  0  0  0
 32 91  1  0  0  0  0
 33 35  1  0  0  0  0
 34 35  2  0  0  0  0
 34 92  1  0  0  0  0
 35 36  1  0  0  0  0
 36 93  1  0  0  0  0
 36 94  1  0  0  0  0
 36 95  1  0  0  0  0
M  END
> <PUBCHEM_COMPOUND_CID>
6850816

> <PUBCHEM_COMPOUND_CANONICALIZED>
1

> <PUBCHEM_CACTVS_COMPLEXITY>
443

> <PUBCHEM_CACTVS_HBOND_ACCEPTOR>
3

> <PUBCHEM_CACTVS_HBOND_DONOR>
1

> <PUBCHEM_CACTVS_ROTATABLE_BOND>
26

> <PUBCHEM_CACTVS_SUBSKEYS>
AAADcfB8IABgAAAAAAAAAAAAAAAAAAAAAAAwAAAAAAAAAAABAAAAGgQACAAADASE2ACyBoAAAgiAAiBCAAACAAAgIBAAiAAECIgIJiKiERKAcAAkwBEomAeAwOAOIAACAAAIAABAAAQAABAAAAAAAAAAAA==

> <PUBCHEM_IUPAC_OPENEYE_NAME>
2,4-bis(dodecylsulfanylmethyl)-6-methyl-phenol

> <PUBCHEM_IUPAC_CAS_NAME>
2,4-bis[(dodecylthio)methyl]-6-methylphenol

> <PUBCHEM_IUPAC_NAME_MARKUP>
2,4-bis(dodecylsulfanylmethyl)-6-methylphenol

> <PUBCHEM_IUPAC_NAME>
2,4-bis(dodecylsulfanylmethyl)-6-methylphenol

> <PUBCHEM_IUPAC_SYSTEMATIC_NAME>
2,4-bis(dodecylsulfanylmethyl)-6-methyl-phenol

> <PUBCHEM_IUPAC_TRADITIONAL_NAME>
2,4-bis[(laurylthio)methyl]-6-methyl-phenol

> <PUBCHEM_IUPAC_INCHI>
InChI=1S/C33H60OS2/c1-4-6-8-10-12-14-16-18-20-22-24-35-28-31-26-30(3)33(34)32(27-31)29-36-25-23-21-19-17-15-13-11-9-7-5-2/h26-27,34H,4-25,28-29H2,1-3H3

> <PUBCHEM_IUPAC_INCHIKEY>
VTFXHGBOGGGYDO-UHFFFAOYSA-N

> <PUBCHEM_XLOGP3_AA>
14

> <PUBCHEM_EXACT_MASS>
536.40855888

> <PUBCHEM_MOLECULAR_FORMULA>
C33H60OS2

> <PUBCHEM_MOLECULAR_WEIGHT>
537.0

> <PUBCHEM_SMILES>
CCCCCCCCCCCCSCC1=CC(=C(C(=C1)C)O)CSCCCCCCCCCCCC

> <PUBCHEM_OPENEYE_CAN_SMILES>
CCCCCCCCCCCCSCC1=CC(=C(C(=C1)C)O)CSCCCCCCCCCCCC

> <PUBCHEM_OPENEYE_ISO_SMILES>
CCCCCCCCCCCCSCC1=CC(=C(C(=C1)C)O)CSCCCCCCCCCCCC

> <PUBCHEM_CACTVS_TPSA>
70.8

> <PUBCHEM_MONOISOTOPIC_WEIGHT>
536.40855888

> <PUBCHEM_TOTAL_CHARGE>
0

> <PUBCHEM_HEAVY_ATOM_COUNT>
36

> <PUBCHEM_ATOM_DEF_STEREO_COUNT>
0

> <PUBCHEM_ATOM_UDEF_STEREO_COUNT>
0

> <PUBCHEM_BOND_DEF_STEREO_COUNT>
0

> <PUBCHEM_BOND_UDEF_STEREO_COUNT>
0

> <PUBCHEM_ISOTOPIC_ATOM_COUNT>
0

> <PUBCHEM_COMPONENT_COUNT>
1

> <PUBCHEM_CACTVS_TAUTO_COUNT>
-1

> <PUBCHEM_COORDINATE_TYPE>
1
5
255

> <PUBCHEM_BONDANNOTATIONS>
30  32  8
30  33  8
31  32  8
31  34  8
33  35  8
34  35  8

$$$$
