6850823
  -OEChem-04042505432D

108111  0     0  0  0  0  0  0999 V2000
    6.6121   -0.1261    0.0000 P   0  0  0  0  0  0  0  0  0  0  0  0
    7.2356   -0.9080    0.0000 O   0  0  0  0  0  0  0  0  0  0  0  0
    5.6121   -0.1261    0.0000 O   0  0  0  0  0  0  0  0  0  0  0  0
    7.0460    0.7748    0.0000 O   0  0  0  0  0  0  0  0  0  0  0  0
   11.2098    5.4291    0.0000 O   0  0  0  0  0  0  0  0  0  0  0  0
    8.7785   -2.0121    0.0000 C   0  0  0  0  0  0  0  0  0  0  0  0
    3.7868    0.3918    0.0000 C   0  0  0  0  0  0  0  0  0  0  0  0
    7.8826   -2.4563    0.0000 C   0  0  0  0  0  0  0  0  0  0  0  0
    3.9981   -0.5856    0.0000 C   0  0  0  0  0  0  0  0  0  0  0  0
    6.7957   -4.9445    0.0000 C   0  0  0  0  0  0  0  0  0  0  0  0
    2.7304   -2.9867    0.0000 C   0  0  0  0  0  0  0  0  0  0  0  0
    6.1121   -2.3168    0.0000 C   0  0  0  0  0  0  0  0  0  0  0  0
    5.2111   -1.8829    0.0000 C   0  0  0  0  0  0  0  0  0  0  0  0
    6.8743   -3.9476    0.0000 C   0  0  0  0  0  0  0  0  0  0  0  0
    3.4608   -2.3037    0.0000 C   0  0  0  0  0  0  0  0  0  0  0  0
    7.0130   -1.8829    0.0000 C   0  0  0  0  0  0  0  0  0  0  0  0
    4.9886   -0.9080    0.0000 C   0  0  0  0  0  0  0  0  0  0  0  0
    7.8128   -3.4956    0.0000 C   0  0  0  0  0  0  0  0  0  0  0  0
    3.2291   -1.2882    0.0000 C   0  0  0  0  0  0  0  0  0  0  0  0
    6.0182   -3.3542    0.0000 C   0  0  0  0  0  0  0  0  0  0  0  0
    4.4585   -2.6031    0.0000 C   0  0  0  0  0  0  0  0  0  0  0  0
    9.6744   -1.5678    0.0000 C   0  0  0  0  0  0  0  0  0  0  0  0
    9.2228   -2.9080    0.0000 C   0  0  0  0  0  0  0  0  0  0  0  0
    8.3342   -1.1162    0.0000 C   0  0  0  0  0  0  0  0  0  0  0  0
    3.5756    1.3692    0.0000 C   0  0  0  0  0  0  0  0  0  0  0  0
    2.8094    0.1806    0.0000 C   0  0  0  0  0  0  0  0  0  0  0  0
    4.7643    0.6030    0.0000 C   0  0  0  0  0  0  0  0  0  0  0  0
    6.7172   -5.9414    0.0000 C   0  0  0  0  0  0  0  0  0  0  0  0
    7.7926   -5.0231    0.0000 C   0  0  0  0  0  0  0  0  0  0  0  0
    5.7988   -4.8659    0.0000 C   0  0  0  0  0  0  0  0  0  0  0  0
    2.0000   -3.6697    0.0000 C   0  0  0  0  0  0  0  0  0  0  0  0
    2.0474   -2.2563    0.0000 C   0  0  0  0  0  0  0  0  0  0  0  0
    3.4134   -3.7172    0.0000 C   0  0  0  0  0  0  0  0  0  0  0  0
   12.3364    3.7766    0.0000 C   0  0  0  0  0  0  0  0  0  0  0  0
   11.3392    3.7019    0.0000 C   0  0  0  0  0  0  0  0  0  0  0  0
    8.0432    0.8496    0.0000 C   0  0  0  0  0  0  0  0  0  0  0  0
    8.4770    1.7505    0.0000 C   0  0  0  0  0  0  0  0  0  0  0  0
    9.4742    1.8252    0.0000 C   0  0  0  0  0  0  0  0  0  0  0  0
    9.9081    2.7262    0.0000 C   0  0  0  0  0  0  0  0  0  0  0  0
   10.9053    2.8010    0.0000 C   0  0  0  0  0  0  0  0  0  0  0  0
   13.3336    3.8514    0.0000 C   0  0  0  0  0  0  0  0  0  0  0  0
   12.4111    2.7794    0.0000 C   0  0  0  0  0  0  0  0  0  0  0  0
   12.2617    4.7739    0.0000 C   0  0  0  0  0  0  0  0  0  0  0  0
   10.7759    4.5282    0.0000 C   0  0  0  0  0  0  0  0  0  0  0  0
    9.7787    4.4534    0.0000 C   0  0  0  0  0  0  0  0  0  0  0  0
    9.3448    3.5525    0.0000 C   0  0  0  0  0  0  0  0  0  0  0  0
    9.2154    5.2797    0.0000 C   0  0  0  0  0  0  0  0  0  0  0  0
    8.3264   -3.8429    0.0000 H   0  0  0  0  0  0  0  0  0  0  0  0
    2.6373   -1.1032    0.0000 H   0  0  0  0  0  0  0  0  0  0  0  0
    5.4565   -3.6167    0.0000 H   0  0  0  0  0  0  0  0  0  0  0  0
    4.6035   -3.2059    0.0000 H   0  0  0  0  0  0  0  0  0  0  0  0
    9.9498   -2.1232    0.0000 H   0  0  0  0  0  0  0  0  0  0  0  0
   10.2299   -1.2924    0.0000 H   0  0  0  0  0  0  0  0  0  0  0  0
    9.3989   -1.0123    0.0000 H   0  0  0  0  0  0  0  0  0  0  0  0
    8.6673   -3.1834    0.0000 H   0  0  0  0  0  0  0  0  0  0  0  0
    9.4982   -3.4634    0.0000 H   0  0  0  0  0  0  0  0  0  0  0  0
    9.7782   -2.6325    0.0000 H   0  0  0  0  0  0  0  0  0  0  0  0
    8.8897   -0.8407    0.0000 H   0  0  0  0  0  0  0  0  0  0  0  0
    8.0588   -0.5607    0.0000 H   0  0  0  0  0  0  0  0  0  0  0  0
    7.7788   -1.3916    0.0000 H   0  0  0  0  0  0  0  0  0  0  0  0
    4.1816    1.5002    0.0000 H   0  0  0  0  0  0  0  0  0  0  0  0
    3.4446    1.9752    0.0000 H   0  0  0  0  0  0  0  0  0  0  0  0
    2.9696    1.2383    0.0000 H   0  0  0  0  0  0  0  0  0  0  0  0
    2.6784    0.7866    0.0000 H   0  0  0  0  0  0  0  0  0  0  0  0
    2.2034    0.0496    0.0000 H   0  0  0  0  0  0  0  0  0  0  0  0
    2.9404   -0.4255    0.0000 H   0  0  0  0  0  0  0  0  0  0  0  0
    4.8952   -0.0030    0.0000 H   0  0  0  0  0  0  0  0  0  0  0  0
    5.3703    0.7340    0.0000 H   0  0  0  0  0  0  0  0  0  0  0  0
    4.6333    1.2090    0.0000 H   0  0  0  0  0  0  0  0  0  0  0  0
    6.0991   -5.8927    0.0000 H   0  0  0  0  0  0  0  0  0  0  0  0
    6.6684   -6.5595    0.0000 H   0  0  0  0  0  0  0  0  0  0  0  0
    7.3352   -5.9901    0.0000 H   0  0  0  0  0  0  0  0  0  0  0  0
    7.7439   -5.6411    0.0000 H   0  0  0  0  0  0  0  0  0  0  0  0
    8.4107   -5.0718    0.0000 H   0  0  0  0  0  0  0  0  0  0  0  0
    7.8414   -4.4050    0.0000 H   0  0  0  0  0  0  0  0  0  0  0  0
    5.8475   -4.2478    0.0000 H   0  0  0  0  0  0  0  0  0  0  0  0
    5.1807   -4.8172    0.0000 H   0  0  0  0  0  0  0  0  0  0  0  0
    5.7501   -5.4840    0.0000 H   0  0  0  0  0  0  0  0  0  0  0  0
    1.5765   -3.2169    0.0000 H   0  0  0  0  0  0  0  0  0  0  0  0
    1.5471   -4.0932    0.0000 H   0  0  0  0  0  0  0  0  0  0  0  0
    2.4235   -4.1226    0.0000 H   0  0  0  0  0  0  0  0  0  0  0  0
    2.5003   -1.8328    0.0000 H   0  0  0  0  0  0  0  0  0  0  0  0
    1.6240   -1.8034    0.0000 H   0  0  0  0  0  0  0  0  0  0  0  0
    1.5946   -2.6798    0.0000 H   0  0  0  0  0  0  0  0  0  0  0  0
    2.9606   -4.1406    0.0000 H   0  0  0  0  0  0  0  0  0  0  0  0
    3.8369   -4.1700    0.0000 H   0  0  0  0  0  0  0  0  0  0  0  0
    3.8663   -3.2937    0.0000 H   0  0  0  0  0  0  0  0  0  0  0  0
    7.9814    0.2326    0.0000 H   0  0  0  0  0  0  0  0  0  0  0  0
    8.6400    0.6816    0.0000 H   0  0  0  0  0  0  0  0  0  0  0  0
    8.5388    2.3674    0.0000 H   0  0  0  0  0  0  0  0  0  0  0  0
    7.8802    1.9184    0.0000 H   0  0  0  0  0  0  0  0  0  0  0  0
    9.4125    1.2083    0.0000 H   0  0  0  0  0  0  0  0  0  0  0  0
   10.0711    1.6573    0.0000 H   0  0  0  0  0  0  0  0  0  0  0  0
   11.2546    2.2887    0.0000 H   0  0  0  0  0  0  0  0  0  0  0  0
   13.3800    3.2331    0.0000 H   0  0  0  0  0  0  0  0  0  0  0  0
   13.9519    3.8977    0.0000 H   0  0  0  0  0  0  0  0  0  0  0  0
   13.2873    4.4696    0.0000 H   0  0  0  0  0  0  0  0  0  0  0  0
   11.7929    2.7331    0.0000 H   0  0  0  0  0  0  0  0  0  0  0  0
   12.4575    2.1612    0.0000 H   0  0  0  0  0  0  0  0  0  0  0  0
   13.0294    2.8258    0.0000 H   0  0  0  0  0  0  0  0  0  0  0  0
   12.8800    4.8202    0.0000 H   0  0  0  0  0  0  0  0  0  0  0  0
   12.2154    5.3921    0.0000 H   0  0  0  0  0  0  0  0  0  0  0  0
   11.6434    4.7275    0.0000 H   0  0  0  0  0  0  0  0  0  0  0  0
    8.7265    3.5061    0.0000 H   0  0  0  0  0  0  0  0  0  0  0  0
    9.7276    5.6289    0.0000 H   0  0  0  0  0  0  0  0  0  0  0  0
    8.8661    5.7919    0.0000 H   0  0  0  0  0  0  0  0  0  0  0  0
    8.7031    4.9304    0.0000 H   0  0  0  0  0  0  0  0  0  0  0  0
   10.8605    5.9414    0.0000 H   0  0  0  0  0  0  0  0  0  0  0  0
  1  2  1  0  0  0  0
  1  3  1  0  0  0  0
  1  4  1  0  0  0  0
  2 16  1  0  0  0  0
  3 17  1  0  0  0  0
  4 36  1  0  0  0  0
  5 44  1  0  0  0  0
  5108  1  0  0  0  0
  6  8  1  0  0  0  0
  6 22  1  0  0  0  0
  6 23  1  0  0  0  0
  6 24  1  0  0  0  0
  7  9  1  0  0  0  0
  7 25  1  0  0  0  0
  7 26  1  0  0  0  0
  7 27  1  0  0  0  0
  8 16  1  0  0  0  0
  8 18  2  0  0  0  0
  9 17  1  0  0  0  0
  9 19  2  0  0  0  0
 10 14  1  0  0  0  0
 10 28  1  0  0  0  0
 10 29  1  0  0  0  0
 10 30  1  0  0  0  0
 11 15  1  0  0  0  0
 11 31  1  0  0  0  0
 11 32  1  0  0  0  0
 11 33  1  0  0  0  0
 12 13  1  0  0  0  0
 12 16  2  0  0  0  0
 12 20  1  0  0  0  0
 13 17  2  0  0  0  0
 13 21  1  0  0  0  0
 14 18  1  0  0  0  0
 14 20  2  0  0  0  0
 15 19  1  0  0  0  0
 15 21  2  0  0  0  0
 18 48  1  0  0  0  0
 19 49  1  0  0  0  0
 20 50  1  0  0  0  0
 21 51  1  0  0  0  0
 22 52  1  0  0  0  0
 22 53  1  0  0  0  0
 22 54  1  0  0  0  0
 23 55  1  0  0  0  0
 23 56  1  0  0  0  0
 23 57  1  0  0  0  0
 24 58  1  0  0  0  0
 24 59  1  0  0  0  0
 24 60  1  0  0  0  0
 25 61  1  0  0  0  0
 25 62  1  0  0  0  0
 25 63  1  0  0  0  0
 26 64  1  0  0  0  0
 26 65  1  0  0  0  0
 26 66  1  0  0  0  0
 27 67  1  0  0  0  0
 27 68  1  0  0  0  0
 27 69  1  0  0  0  0
 28 70  1  0  0  0  0
 28 71  1  0  0  0  0
 28 72  1  0  0  0  0
 29 73  1  0  0  0  0
 29 74  1  0  0  0  0
 29 75  1  0  0  0  0
 30 76  1  0  0  0  0
 30 77  1  0  0  0  0
 30 78  1  0  0  0  0
 31 79  1  0  0  0  0
 31 80  1  0  0  0  0
 31 81  1  0  0  0  0
 32 82  1  0  0  0  0
 32 83  1  0  0  0  0
 32 84  1  0  0  0  0
 33 85  1  0  0  0  0
 33 86  1  0  0  0  0
 33 87  1  0  0  0  0
 34 35  1  0  0  0  0
 34 41  1  0  0  0  0
 34 42  1  0  0  0  0
 34 43  1  0  0  0  0
 35 40  1  0  0  0  0
 35 44  2  0  0  0  0
 36 37  1  0  0  0  0
 36 88  1  0  0  0  0
 36 89  1  0  0  0  0
 37 38  1  0  0  0  0
 37 90  1  0  0  0  0
 37 91  1  0  0  0  0
 38 39  1  0  0  0  0
 38 92  1  0  0  0  0
 38 93  1  0  0  0  0
 39 40  2  0  0  0  0
 39 46  1  0  0  0  0
 40 94  1  0  0  0  0
 41 95  1  0  0  0  0
 41 96  1  0  0  0  0
 41 97  1  0  0  0  0
 42 98  1  0  0  0  0
 42 99  1  0  0  0  0
 42100  1  0  0  0  0
 43101  1  0  0  0  0
 43102  1  0  0  0  0
 43103  1  0  0  0  0
 44 45  1  0  0  0  0
 45 46  2  0  0  0  0
 45 47  1  0  0  0  0
 46104  1  0  0  0  0
 47105  1  0  0  0  0
 47106  1  0  0  0  0
 47107  1  0  0  0  0
M  END
> <PUBCHEM_COMPOUND_CID>
6850823

> <PUBCHEM_COMPOUND_CANONICALIZED>
1

> <PUBCHEM_CACTVS_COMPLEXITY>
950

> <PUBCHEM_CACTVS_HBOND_ACCEPTOR>
4

> <PUBCHEM_CACTVS_HBOND_DONOR>
1

> <PUBCHEM_CACTVS_ROTATABLE_BOND>
10

> <PUBCHEM_CACTVS_SUBSKEYS>
AAADcfB8OAIAAAAAAAAAAAAAAAAAAAAAAAAwYMAABIAAAAAB/AAAGgAACCAADgSgmAIyBsAAAxCIQqBSAIACAAAkIAAAiAEECMgIJjKCFRKAcQAkwBEImYfLyPCPoAACAAAIAABAAAQAABAAAAAAAAAAAA==

> <PUBCHEM_IUPAC_OPENEYE_NAME>
2-tert-butyl-6-methyl-4-[3-(2,4,8,10-tetratert-butylbenzo[d][1,3,2]benzodioxaphosphepin-6-yl)oxypropyl]phenol

> <PUBCHEM_IUPAC_CAS_NAME>
2-tert-butyl-6-methyl-4-[3-[(2,4,8,10-tetratert-butyl-6-benzo[d][1,3,2]benzodioxaphosphepinyl)oxy]propyl]phenol

> <PUBCHEM_IUPAC_NAME_MARKUP>
2-<I>tert</I>-butyl-6-methyl-4-[3-(2,4,8,10-tetra<I>tert</I>-butylbenzo[d][1,3,2]benzodioxaphosphepin-6-yl)oxypropyl]phenol

> <PUBCHEM_IUPAC_NAME>
2-tert-butyl-6-methyl-4-[3-(2,4,8,10-tetratert-butylbenzo[d][1,3,2]benzodioxaphosphepin-6-yl)oxypropyl]phenol

> <PUBCHEM_IUPAC_SYSTEMATIC_NAME>
2-tert-butyl-6-methyl-4-[3-(2,4,8,10-tetratert-butylbenzo[d][1,3,2]benzodioxaphosphepin-6-yl)oxypropyl]phenol

> <PUBCHEM_IUPAC_TRADITIONAL_NAME>
2-tert-butyl-6-methyl-4-[3-(2,4,8,10-tetratert-butylbenzo[d][1,3,2]benzodioxaphosphepin-6-yl)oxypropyl]phenol

> <PUBCHEM_IUPAC_INCHI>
InChI=1S/C42H61O4P/c1-26-20-27(21-32(35(26)43)40(8,9)10)18-17-19-44-47-45-36-30(22-28(38(2,3)4)24-33(36)41(11,12)13)31-23-29(39(5,6)7)25-34(37(31)46-47)42(14,15)16/h20-25,43H,17-19H2,1-16H3

> <PUBCHEM_IUPAC_INCHIKEY>
MSXXDBCLAKQJQT-UHFFFAOYSA-N

> <PUBCHEM_XLOGP3_AA>
14.1

> <PUBCHEM_EXACT_MASS>
660.43074742

> <PUBCHEM_MOLECULAR_FORMULA>
C42H61O4P

> <PUBCHEM_MOLECULAR_WEIGHT>
660.9

> <PUBCHEM_SMILES>
CC1=CC(=CC(=C1O)C(C)(C)C)CCCOP2OC3=C(C=C(C=C3C(C)(C)C)C(C)(C)C)C4=C(O2)C(=CC(=C4)C(C)(C)C)C(C)(C)C

> <PUBCHEM_OPENEYE_CAN_SMILES>
CC1=CC(=CC(=C1O)C(C)(C)C)CCCOP2OC3=C(C=C(C=C3C(C)(C)C)C(C)(C)C)C4=C(O2)C(=CC(=C4)C(C)(C)C)C(C)(C)C

> <PUBCHEM_OPENEYE_ISO_SMILES>
CC1=CC(=CC(=C1O)C(C)(C)C)CCCOP2OC3=C(C=C(C=C3C(C)(C)C)C(C)(C)C)C4=C(O2)C(=CC(=C4)C(C)(C)C)C(C)(C)C

> <PUBCHEM_CACTVS_TPSA>
55.7

> <PUBCHEM_MONOISOTOPIC_WEIGHT>
660.43074742

> <PUBCHEM_TOTAL_CHARGE>
0

> <PUBCHEM_HEAVY_ATOM_COUNT>
47

> <PUBCHEM_ATOM_DEF_STEREO_COUNT>
0

> <PUBCHEM_ATOM_UDEF_STEREO_COUNT>
0

> <PUBCHEM_BOND_DEF_STEREO_COUNT>
0

> <PUBCHEM_BOND_UDEF_STEREO_COUNT>
0

> <PUBCHEM_ISOTOPIC_ATOM_COUNT>
0

> <PUBCHEM_COMPONENT_COUNT>
1

> <PUBCHEM_CACTVS_TAUTO_COUNT>
-1

> <PUBCHEM_COORDINATE_TYPE>
1
5
255

> <PUBCHEM_BONDANNOTATIONS>
1  2  8
1  3  8
12  13  8
12  16  8
12  20  8
13  17  8
13  21  8
14  18  8
14  20  8
15  19  8
15  21  8
2  16  8
3  17  8
35  40  8
35  44  8
39  40  8
39  46  8
44  45  8
45  46  8
8  16  8
8  18  8
9  17  8
9  19  8

$$$$
