6850780
  -OEChem-04042512132D

116117  0     0  0  0  0  0  0999 V2000
    6.4641   -1.2500    0.0000 S   0  0  0  0  0  0  0  0  0  0  0  0
   10.7942    1.2500    0.0000 S   0  0  0  0  0  0  0  0  0  0  0  0
    3.0000    8.7500    0.0000 S   0  0  0  0  0  0  0  0  0  0  0  0
   14.2583   -8.7500    0.0000 S   0  0  0  0  0  0  0  0  0  0  0  0
   15.1244  -10.2500    0.0000 Na  0  3  0  0  0  0  0  0  0  0  0  0
    2.1340   10.2500    0.0000 Na  0  3  0  0  0  0  0  0  0  0  0  0
   11.6603    2.7500    0.0000 Na  0  3  0  0  0  0  0  0  0  0  0  0
    5.5981   -2.7500    0.0000 Na  0  3  0  0  0  0  0  0  0  0  0  0
    7.3301    7.2500    0.0000 O   0  0  0  0  0  0  0  0  0  0  0  0
    9.0622    4.2500    0.0000 O   0  0  0  0  0  0  0  0  0  0  0  0
    9.9282   -7.2500    0.0000 O   0  0  0  0  0  0  0  0  0  0  0  0
    8.1962   -4.2500    0.0000 O   0  0  0  0  0  0  0  0  0  0  0  0
    6.4641   -2.2500    0.0000 O   0  5  0  0  0  0  0  0  0  0  0  0
   10.7942    2.2500    0.0000 O   0  5  0  0  0  0  0  0  0  0  0  0
    5.4641   -1.2500    0.0000 O   0  0  0  0  0  0  0  0  0  0  0  0
    7.4641   -1.2500    0.0000 O   0  0  0  0  0  0  0  0  0  0  0  0
   11.7942    1.2500    0.0000 O   0  0  0  0  0  0  0  0  0  0  0  0
    9.7942    1.2500    0.0000 O   0  0  0  0  0  0  0  0  0  0  0  0
    3.0000    9.7500    0.0000 O   0  5  0  0  0  0  0  0  0  0  0  0
   14.2583   -9.7500    0.0000 O   0  5  0  0  0  0  0  0  0  0  0  0
    2.0000    8.7500    0.0000 O   0  0  0  0  0  0  0  0  0  0  0  0
    4.0000    8.7500    0.0000 O   0  0  0  0  0  0  0  0  0  0  0  0
   15.2583   -8.7500    0.0000 O   0  0  0  0  0  0  0  0  0  0  0  0
   13.2583   -8.7500    0.0000 O   0  0  0  0  0  0  0  0  0  0  0  0
    6.4641    4.7500    0.0000 N   0  0  0  0  0  0  0  0  0  0  0  0
   10.7942   -4.7500    0.0000 N   0  0  0  0  0  0  0  0  0  0  0  0
    4.7320    1.7500    0.0000 N   0  0  0  0  0  0  0  0  0  0  0  0
   12.5263   -1.7500    0.0000 N   0  0  0  0  0  0  0  0  0  0  0  0
    5.5981    3.2500    0.0000 N   0  0  0  0  0  0  0  0  0  0  0  0
   11.6603   -3.2500    0.0000 N   0  0  0  0  0  0  0  0  0  0  0  0
    4.7320    4.7500    0.0000 N   0  0  0  0  0  0  0  0  0  0  0  0
   12.5263   -4.7500    0.0000 N   0  0  0  0  0  0  0  0  0  0  0  0
    3.8660    3.2500    0.0000 N   0  0  0  0  0  0  0  0  0  0  0  0
   13.3923   -3.2500    0.0000 N   0  0  0  0  0  0  0  0  0  0  0  0
    3.0000    4.7500    0.0000 N   0  0  0  0  0  0  0  0  0  0  0  0
   14.2583   -4.7500    0.0000 N   0  0  0  0  0  0  0  0  0  0  0  0
    6.4641    5.7500    0.0000 C   0  0  0  0  0  0  0  0  0  0  0  0
    7.3301    4.2500    0.0000 C   0  0  0  0  0  0  0  0  0  0  0  0
   10.7942   -5.7500    0.0000 C   0  0  0  0  0  0  0  0  0  0  0  0
    9.9282   -4.2500    0.0000 C   0  0  0  0  0  0  0  0  0  0  0  0
    7.3301    0.2500    0.0000 C   0  0  0  0  0  0  0  0  0  0  0  0
    9.9282   -0.2500    0.0000 C   0  0  0  0  0  0  0  0  0  0  0  0
    5.5981    4.2500    0.0000 C   0  0  0  0  0  0  0  0  0  0  0  0
   11.6603   -4.2500    0.0000 C   0  0  0  0  0  0  0  0  0  0  0  0
    6.4641   -0.2500    0.0000 C   0  0  0  0  0  0  0  0  0  0  0  0
   10.7942    0.2500    0.0000 C   0  0  0  0  0  0  0  0  0  0  0  0
    5.5981    1.2500    0.0000 C   0  0  0  0  0  0  0  0  0  0  0  0
   11.6603   -1.2500    0.0000 C   0  0  0  0  0  0  0  0  0  0  0  0
    5.5981    0.2500    0.0000 C   0  0  0  0  0  0  0  0  0  0  0  0
   11.6603   -0.2500    0.0000 C   0  0  0  0  0  0  0  0  0  0  0  0
    7.3301    6.2500    0.0000 C   0  0  0  0  0  0  0  0  0  0  0  0
    8.1962    4.7500    0.0000 C   0  0  0  0  0  0  0  0  0  0  0  0
    9.9282   -6.2500    0.0000 C   0  0  0  0  0  0  0  0  0  0  0  0
    9.0622   -4.7500    0.0000 C   0  0  0  0  0  0  0  0  0  0  0  0
    8.1962   -0.2500    0.0000 C   0  0  0  0  0  0  0  0  0  0  0  0
    9.0622    0.2500    0.0000 C   0  0  0  0  0  0  0  0  0  0  0  0
    7.3301    1.2500    0.0000 C   0  0  0  0  0  0  0  0  0  0  0  0
    9.9282   -1.2500    0.0000 C   0  0  0  0  0  0  0  0  0  0  0  0
    6.4641    1.7500    0.0000 C   0  0  0  0  0  0  0  0  0  0  0  0
   10.7942   -1.7500    0.0000 C   0  0  0  0  0  0  0  0  0  0  0  0
    4.7320    2.7500    0.0000 C   0  0  0  0  0  0  0  0  0  0  0  0
   12.5263   -2.7500    0.0000 C   0  0  0  0  0  0  0  0  0  0  0  0
    3.8660    4.2500    0.0000 C   0  0  0  0  0  0  0  0  0  0  0  0
   13.3923   -4.2500    0.0000 C   0  0  0  0  0  0  0  0  0  0  0  0
    3.0000    5.7500    0.0000 C   0  0  0  0  0  0  0  0  0  0  0  0
   14.2583   -5.7500    0.0000 C   0  0  0  0  0  0  0  0  0  0  0  0
    3.8660    6.2500    0.0000 C   0  0  0  0  0  0  0  0  0  0  0  0
   13.3923   -6.2500    0.0000 C   0  0  0  0  0  0  0  0  0  0  0  0
    2.1340    6.2500    0.0000 C   0  0  0  0  0  0  0  0  0  0  0  0
   15.1244   -6.2500    0.0000 C   0  0  0  0  0  0  0  0  0  0  0  0
    3.0000    7.7500    0.0000 C   0  0  0  0  0  0  0  0  0  0  0  0
   14.2583   -7.7500    0.0000 C   0  0  0  0  0  0  0  0  0  0  0  0
    3.8660    7.2500    0.0000 C   0  0  0  0  0  0  0  0  0  0  0  0
   13.3923   -7.2500    0.0000 C   0  0  0  0  0  0  0  0  0  0  0  0
    2.1340    7.2500    0.0000 C   0  0  0  0  0  0  0  0  0  0  0  0
   15.1244   -7.2500    0.0000 C   0  0  0  0  0  0  0  0  0  0  0  0
    6.2520    6.3326    0.0000 H   0  0  0  0  0  0  0  0  0  0  0  0
    5.8535    5.6423    0.0000 H   0  0  0  0  0  0  0  0  0  0  0  0
    6.9316    3.7750    0.0000 H   0  0  0  0  0  0  0  0  0  0  0  0
    7.7287    3.7750    0.0000 H   0  0  0  0  0  0  0  0  0  0  0  0
   11.0063   -6.3326    0.0000 H   0  0  0  0  0  0  0  0  0  0  0  0
   11.4048   -5.6423    0.0000 H   0  0  0  0  0  0  0  0  0  0  0  0
   10.3267   -3.7750    0.0000 H   0  0  0  0  0  0  0  0  0  0  0  0
    9.5297   -3.7750    0.0000 H   0  0  0  0  0  0  0  0  0  0  0  0
    5.0611   -0.0600    0.0000 H   0  0  0  0  0  0  0  0  0  0  0  0
   12.1972    0.0600    0.0000 H   0  0  0  0  0  0  0  0  0  0  0  0
    7.5422    5.6674    0.0000 H   0  0  0  0  0  0  0  0  0  0  0  0
    7.9407    6.3577    0.0000 H   0  0  0  0  0  0  0  0  0  0  0  0
    8.5947    5.2250    0.0000 H   0  0  0  0  0  0  0  0  0  0  0  0
    7.7976    5.2250    0.0000 H   0  0  0  0  0  0  0  0  0  0  0  0
    9.7162   -5.6674    0.0000 H   0  0  0  0  0  0  0  0  0  0  0  0
    9.3176   -6.3577    0.0000 H   0  0  0  0  0  0  0  0  0  0  0  0
    8.6636   -5.2250    0.0000 H   0  0  0  0  0  0  0  0  0  0  0  0
    9.4607   -5.2250    0.0000 H   0  0  0  0  0  0  0  0  0  0  0  0
    8.1962   -0.8700    0.0000 H   0  0  0  0  0  0  0  0  0  0  0  0
    9.0622    0.8700    0.0000 H   0  0  0  0  0  0  0  0  0  0  0  0
    7.8671    1.5600    0.0000 H   0  0  0  0  0  0  0  0  0  0  0  0
    9.3913   -1.5600    0.0000 H   0  0  0  0  0  0  0  0  0  0  0  0
    6.4641    2.3700    0.0000 H   0  0  0  0  0  0  0  0  0  0  0  0
   10.7942   -2.3700    0.0000 H   0  0  0  0  0  0  0  0  0  0  0  0
    4.1951    1.4400    0.0000 H   0  0  0  0  0  0  0  0  0  0  0  0
   13.0632   -1.4400    0.0000 H   0  0  0  0  0  0  0  0  0  0  0  0
    2.4631    4.4400    0.0000 H   0  0  0  0  0  0  0  0  0  0  0  0
   14.7953   -4.4400    0.0000 H   0  0  0  0  0  0  0  0  0  0  0  0
    7.8671    7.5600    0.0000 H   0  0  0  0  0  0  0  0  0  0  0  0
    9.5991    4.5600    0.0000 H   0  0  0  0  0  0  0  0  0  0  0  0
    9.3913   -7.5600    0.0000 H   0  0  0  0  0  0  0  0  0  0  0  0
    7.6592   -4.5600    0.0000 H   0  0  0  0  0  0  0  0  0  0  0  0
    4.4030    5.9400    0.0000 H   0  0  0  0  0  0  0  0  0  0  0  0
   12.8554   -5.9400    0.0000 H   0  0  0  0  0  0  0  0  0  0  0  0
    1.5970    5.9400    0.0000 H   0  0  0  0  0  0  0  0  0  0  0  0
   15.6613   -5.9400    0.0000 H   0  0  0  0  0  0  0  0  0  0  0  0
    4.4030    7.5600    0.0000 H   0  0  0  0  0  0  0  0  0  0  0  0
   12.8554   -7.5600    0.0000 H   0  0  0  0  0  0  0  0  0  0  0  0
    1.5970    7.5600    0.0000 H   0  0  0  0  0  0  0  0  0  0  0  0
   15.6613   -7.5600    0.0000 H   0  0  0  0  0  0  0  0  0  0  0  0
  1 13  1  0  0  0  0
  1 15  2  0  0  0  0
  1 16  2  0  0  0  0
  1 45  1  0  0  0  0
  2 14  1  0  0  0  0
  2 17  2  0  0  0  0
  2 18  2  0  0  0  0
  2 46  1  0  0  0  0
  3 19  1  0  0  0  0
  3 21  2  0  0  0  0
  3 22  2  0  0  0  0
  3 71  1  0  0  0  0
  4 20  1  0  0  0  0
  4 23  2  0  0  0  0
  4 24  2  0  0  0  0
  4 72  1  0  0  0  0
  9 51  1  0  0  0  0
  9105  1  0  0  0  0
 10 52  1  0  0  0  0
 10106  1  0  0  0  0
 11 53  1  0  0  0  0
 11107  1  0  0  0  0
 12 54  1  0  0  0  0
 12108  1  0  0  0  0
 25 37  1  0  0  0  0
 25 38  1  0  0  0  0
 25 43  1  0  0  0  0
 26 39  1  0  0  0  0
 26 40  1  0  0  0  0
 26 44  1  0  0  0  0
 27 47  1  0  0  0  0
 27 61  1  0  0  0  0
 27101  1  0  0  0  0
 28 48  1  0  0  0  0
 28 62  1  0  0  0  0
 28102  1  0  0  0  0
 29 43  1  0  0  0  0
 29 61  2  0  0  0  0
 30 44  1  0  0  0  0
 30 62  2  0  0  0  0
 31 43  2  0  0  0  0
 31 63  1  0  0  0  0
 32 44  2  0  0  0  0
 32 64  1  0  0  0  0
 33 61  1  0  0  0  0
 33 63  2  0  0  0  0
 34 62  1  0  0  0  0
 34 64  2  0  0  0  0
 35 63  1  0  0  0  0
 35 65  1  0  0  0  0
 35103  1  0  0  0  0
 36 64  1  0  0  0  0
 36 66  1  0  0  0  0
 36104  1  0  0  0  0
 37 51  1  0  0  0  0
 37 77  1  0  0  0  0
 37 78  1  0  0  0  0
 38 52  1  0  0  0  0
 38 79  1  0  0  0  0
 38 80  1  0  0  0  0
 39 53  1  0  0  0  0
 39 81  1  0  0  0  0
 39 82  1  0  0  0  0
 40 54  1  0  0  0  0
 40 83  1  0  0  0  0
 40 84  1  0  0  0  0
 41 45  2  0  0  0  0
 41 55  1  0  0  0  0
 41 57  1  0  0  0  0
 42 46  2  0  0  0  0
 42 56  1  0  0  0  0
 42 58  1  0  0  0  0
 45 49  1  0  0  0  0
 46 50  1  0  0  0  0
 47 49  2  0  0  0  0
 47 59  1  0  0  0  0
 48 50  2  0  0  0  0
 48 60  1  0  0  0  0
 49 85  1  0  0  0  0
 50 86  1  0  0  0  0
 51 87  1  0  0  0  0
 51 88  1  0  0  0  0
 52 89  1  0  0  0  0
 52 90  1  0  0  0  0
 53 91  1  0  0  0  0
 53 92  1  0  0  0  0
 54 93  1  0  0  0  0
 54 94  1  0  0  0  0
 55 56  2  0  0  0  0
 55 95  1  0  0  0  0
 56 96  1  0  0  0  0
 57 59  2  0  0  0  0
 57 97  1  0  0  0  0
 58 60  2  0  0  0  0
 58 98  1  0  0  0  0
 59 99  1  0  0  0  0
 60100  1  0  0  0  0
 65 67  2  0  0  0  0
 65 69  1  0  0  0  0
 66 68  2  0  0  0  0
 66 70  1  0  0  0  0
 67 73  1  0  0  0  0
 67109  1  0  0  0  0
 68 74  1  0  0  0  0
 68110  1  0  0  0  0
 69 75  2  0  0  0  0
 69111  1  0  0  0  0
 70 76  2  0  0  0  0
 70112  1  0  0  0  0
 71 73  2  0  0  0  0
 71 75  1  0  0  0  0
 72 74  2  0  0  0  0
 72 76  1  0  0  0  0
 73113  1  0  0  0  0
 74114  1  0  0  0  0
 75115  1  0  0  0  0
 76116  1  0  0  0  0
M  CHG  8   5   1   6   1   7   1   8   1  13  -1  14  -1  19  -1  20  -1
M  END
> <PUBCHEM_COMPOUND_CID>
6850780

> <PUBCHEM_COMPOUND_CANONICALIZED>
1

> <PUBCHEM_CACTVS_COMPLEXITY>
1940

> <PUBCHEM_CACTVS_HBOND_ACCEPTOR>
28

> <PUBCHEM_CACTVS_HBOND_DONOR>
8

> <PUBCHEM_CACTVS_ROTATABLE_BOND>
20

> <PUBCHEM_CACTVS_SUBSKEYS>
AAADcfB//jBwAAAAAAAAAAAAAAAAAAAAAAA8eMGCAAAAAAAB9AAAHgQQCAAADAjh2AYx0YfIEgKgAiRCZHDCAEkhAoAJiBgIZIiKOCLAmZGEIAxokALYyCcQgAAOCAQAACAEAAAQCAAAQAgAAAAAAAAAAA==

> <PUBCHEM_IUPAC_OPENEYE_NAME>
tetrasodium;5-[[4-[bis(2-hydroxyethyl)amino]-6-(4-sulfonatoanilino)-1,3,5-triazin-2-yl]amino]-2-[(E)-2-[4-[[4-[bis(2-hydroxyethyl)amino]-6-(4-sulfonatoanilino)-1,3,5-triazin-2-yl]amino]-2-sulfonato-phenyl]vinyl]benzenesulfonate

> <PUBCHEM_IUPAC_CAS_NAME>
tetrasodium;5-[[4-[bis(2-hydroxyethyl)amino]-6-(4-sulfonatoanilino)-1,3,5-triazin-2-yl]amino]-2-[(E)-2-[4-[[4-[bis(2-hydroxyethyl)amino]-6-(4-sulfonatoanilino)-1,3,5-triazin-2-yl]amino]-2-sulfonatophenyl]ethenyl]benzenesulfonate

> <PUBCHEM_IUPAC_NAME_MARKUP>
tetrasodium;5-[[4-[bis(2-hydroxyethyl)amino]-6-(4-sulfonatoanilino)-1,3,5-triazin-2-yl]amino]-2-[(<I>E</I>)-2-[4-[[4-[bis(2-hydroxyethyl)amino]-6-(4-sulfonatoanilino)-1,3,5-triazin-2-yl]amino]-2-sulfonatophenyl]ethenyl]benzenesulfonate

> <PUBCHEM_IUPAC_NAME>
tetrasodium;5-[[4-[bis(2-hydroxyethyl)amino]-6-(4-sulfonatoanilino)-1,3,5-triazin-2-yl]amino]-2-[(E)-2-[4-[[4-[bis(2-hydroxyethyl)amino]-6-(4-sulfonatoanilino)-1,3,5-triazin-2-yl]amino]-2-sulfonatophenyl]ethenyl]benzenesulfonate

> <PUBCHEM_IUPAC_SYSTEMATIC_NAME>
tetrasodium;5-[[4-[bis(2-hydroxyethyl)amino]-6-[(4-sulfonatophenyl)amino]-1,3,5-triazin-2-yl]amino]-2-[(E)-2-[4-[[4-[bis(2-hydroxyethyl)amino]-6-[(4-sulfonatophenyl)amino]-1,3,5-triazin-2-yl]amino]-2-sulfonato-phenyl]ethenyl]benzenesulfonate

> <PUBCHEM_IUPAC_TRADITIONAL_NAME>
tetrasodium;5-[[4-[bis(2-hydroxyethyl)amino]-6-(4-sulfonatoanilino)-s-triazin-2-yl]amino]-2-[(E)-2-[4-[[4-[bis(2-hydroxyethyl)amino]-6-(4-sulfonatoanilino)-s-triazin-2-yl]amino]-2-sulfonato-phenyl]vinyl]besylate

> <PUBCHEM_IUPAC_INCHI>
InChI=1S/C40H44N12O16S4.4Na/c53-19-15-51(16-20-54)39-47-35(41-27-7-11-31(12-8-27)69(57,58)59)45-37(49-39)43-29-5-3-25(33(23-29)71(63,64)65)1-2-26-4-6-30(24-34(26)72(66,67)68)44-38-46-36(48-40(50-38)52(17-21-55)18-22-56)42-28-9-13-32(14-10-28)70(60,61)62;;;;/h1-14,23-24,53-56H,15-22H2,(H,57,58,59)(H,60,61,62)(H,63,64,65)(H,66,67,68)(H2,41,43,45,47,49)(H2,42,44,46,48,50);;;;/q;4*+1/p-4/b2-1+;;;;

> <PUBCHEM_IUPAC_INCHIKEY>
CPZFDTYTCMAAQX-MBCFVHIPSA-J

> <PUBCHEM_EXACT_MASS>
1164.1158851

> <PUBCHEM_MOLECULAR_FORMULA>
C40H40N12Na4O16S4

> <PUBCHEM_MOLECULAR_WEIGHT>
1165.0

> <PUBCHEM_SMILES>
C1=CC(=CC=C1NC2=NC(=NC(=N2)N(CCO)CCO)NC3=CC(=C(C=C3)/C=C/C4=C(C=C(C=C4)NC5=NC(=NC(=N5)NC6=CC=C(C=C6)S(=O)(=O)[O-])N(CCO)CCO)S(=O)(=O)[O-])S(=O)(=O)[O-])S(=O)(=O)[O-].[Na+].[Na+].[Na+].[Na+]

> <PUBCHEM_OPENEYE_CAN_SMILES>
C1=CC(=CC=C1NC2=NC(=NC(=N2)N(CCO)CCO)NC3=CC(=C(C=C3)C=CC4=C(C=C(C=C4)NC5=NC(=NC(=N5)NC6=CC=C(C=C6)S(=O)(=O)[O-])N(CCO)CCO)S(=O)(=O)[O-])S(=O)(=O)[O-])S(=O)(=O)[O-].[Na+].[Na+].[Na+].[Na+]

> <PUBCHEM_OPENEYE_ISO_SMILES>
C1=CC(=CC=C1NC2=NC(=NC(=N2)N(CCO)CCO)NC3=CC(=C(C=C3)/C=C/C4=C(C=C(C=C4)NC5=NC(=NC(=N5)NC6=CC=C(C=C6)S(=O)(=O)[O-])N(CCO)CCO)S(=O)(=O)[O-])S(=O)(=O)[O-])S(=O)(=O)[O-].[Na+].[Na+].[Na+].[Na+]

> <PUBCHEM_CACTVS_TPSA>
475

> <PUBCHEM_MONOISOTOPIC_WEIGHT>
1164.1158851

> <PUBCHEM_TOTAL_CHARGE>
0

> <PUBCHEM_HEAVY_ATOM_COUNT>
76

> <PUBCHEM_ATOM_DEF_STEREO_COUNT>
0

> <PUBCHEM_ATOM_UDEF_STEREO_COUNT>
0

> <PUBCHEM_BOND_DEF_STEREO_COUNT>
1

> <PUBCHEM_BOND_UDEF_STEREO_COUNT>
0

> <PUBCHEM_ISOTOPIC_ATOM_COUNT>
0

> <PUBCHEM_COMPONENT_COUNT>
5

> <PUBCHEM_CACTVS_TAUTO_COUNT>
-1

> <PUBCHEM_COORDINATE_TYPE>
1
5
255

> <PUBCHEM_BONDANNOTATIONS>
29  43  8
29  61  8
30  44  8
30  62  8
31  43  8
31  63  8
32  44  8
32  64  8
33  61  8
33  63  8
34  62  8
34  64  8
41  45  8
41  57  8
42  46  8
42  58  8
45  49  8
46  50  8
47  49  8
47  59  8
48  50  8
48  60  8
57  59  8
58  60  8
65  67  8
65  69  8
66  68  8
66  70  8
67  73  8
68  74  8
69  75  8
70  76  8
71  73  8
71  75  8
72  74  8
72  76  8

$$$$
