68805814
  -OEChem-04042513082D

 67 68  0     0  0  0  0  0  0999 V2000
    5.4641   -0.9400    0.0000 S   0  0  0  0  0  0  0  0  0  0  0  0
    7.1962   -2.9400    0.0000 O   0  0  0  0  0  0  0  0  0  0  0  0
    4.5981    1.5600    0.0000 O   0  0  0  0  0  0  0  0  0  0  0  0
   10.6603   -2.9400    0.0000 O   0  0  0  0  0  0  0  0  0  0  0  0
    5.4641    6.0600    0.0000 O   0  0  0  0  0  0  0  0  0  0  0  0
    6.3301   -4.4400    0.0000 O   0  0  0  0  0  0  0  0  0  0  0  0
    2.8660    1.5600    0.0000 O   0  0  0  0  0  0  0  0  0  0  0  0
   11.5263   -4.4400    0.0000 O   0  0  0  0  0  0  0  0  0  0  0  0
    6.3301    4.5600    0.0000 O   0  0  0  0  0  0  0  0  0  0  0  0
    8.9282   -5.9400    0.0000 N   0  0  0  0  0  0  0  0  0  0  0  0
    2.8660    4.5600    0.0000 N   0  0  0  0  0  0  0  0  0  0  0  0
    8.9282   -3.9400    0.0000 C   0  0  0  0  0  0  0  0  0  0  0  0
    4.5981    3.5600    0.0000 C   0  0  0  0  0  0  0  0  0  0  0  0
    8.0622   -4.4400    0.0000 C   0  0  0  0  0  0  0  0  0  0  0  0
    3.7320    3.0600    0.0000 C   0  0  0  0  0  0  0  0  0  0  0  0
    9.7942   -4.4400    0.0000 C   0  0  0  0  0  0  0  0  0  0  0  0
    4.5981    4.5600    0.0000 C   0  0  0  0  0  0  0  0  0  0  0  0
    8.0622   -5.4400    0.0000 C   0  0  0  0  0  0  0  0  0  0  0  0
    2.8660    3.5600    0.0000 C   0  0  0  0  0  0  0  0  0  0  0  0
    9.7942   -5.4400    0.0000 C   0  0  0  0  0  0  0  0  0  0  0  0
    3.7320    5.0600    0.0000 C   0  0  0  0  0  0  0  0  0  0  0  0
    7.1962   -5.9400    0.0000 C   0  0  0  0  0  0  0  0  0  0  0  0
    2.0000    3.0600    0.0000 C   0  0  0  0  0  0  0  0  0  0  0  0
    7.1962   -3.9400    0.0000 C   0  0  0  0  0  0  0  0  0  0  0  0
    3.7320    2.0600    0.0000 C   0  0  0  0  0  0  0  0  0  0  0  0
   10.6603   -5.9400    0.0000 C   0  0  0  0  0  0  0  0  0  0  0  0
    3.7320    6.0600    0.0000 C   0  0  0  0  0  0  0  0  0  0  0  0
   10.6603   -3.9400    0.0000 C   0  0  0  0  0  0  0  0  0  0  0  0
    5.4641    5.0600    0.0000 C   0  0  0  0  0  0  0  0  0  0  0  0
    6.3301   -2.4400    0.0000 C   0  0  0  0  0  0  0  0  0  0  0  0
    4.5981    0.5600    0.0000 C   0  0  0  0  0  0  0  0  0  0  0  0
    6.3301   -1.4400    0.0000 C   0  0  0  0  0  0  0  0  0  0  0  0
    5.4641    0.0600    0.0000 C   0  0  0  0  0  0  0  0  0  0  0  0
   11.5263   -2.4400    0.0000 C   0  0  0  0  0  0  0  0  0  0  0  0
    6.3301    6.5600    0.0000 C   0  0  0  0  0  0  0  0  0  0  0  0
    9.3267   -3.4650    0.0000 H   0  0  0  0  0  0  0  0  0  0  0  0
    8.5297   -3.4650    0.0000 H   0  0  0  0  0  0  0  0  0  0  0  0
    4.8101    2.9774    0.0000 H   0  0  0  0  0  0  0  0  0  0  0  0
    5.2087    3.6677    0.0000 H   0  0  0  0  0  0  0  0  0  0  0  0
    8.9282   -6.5600    0.0000 H   0  0  0  0  0  0  0  0  0  0  0  0
    2.3291    4.8700    0.0000 H   0  0  0  0  0  0  0  0  0  0  0  0
    6.8862   -5.4031    0.0000 H   0  0  0  0  0  0  0  0  0  0  0  0
    6.6592   -6.2500    0.0000 H   0  0  0  0  0  0  0  0  0  0  0  0
    7.5062   -6.4769    0.0000 H   0  0  0  0  0  0  0  0  0  0  0  0
    1.6900    3.5969    0.0000 H   0  0  0  0  0  0  0  0  0  0  0  0
    1.4631    2.7500    0.0000 H   0  0  0  0  0  0  0  0  0  0  0  0
    2.3100    2.5231    0.0000 H   0  0  0  0  0  0  0  0  0  0  0  0
   10.3503   -6.4769    0.0000 H   0  0  0  0  0  0  0  0  0  0  0  0
   11.1972   -6.2500    0.0000 H   0  0  0  0  0  0  0  0  0  0  0  0
   10.9703   -5.4031    0.0000 H   0  0  0  0  0  0  0  0  0  0  0  0
    4.3520    6.0600    0.0000 H   0  0  0  0  0  0  0  0  0  0  0  0
    3.7320    6.6800    0.0000 H   0  0  0  0  0  0  0  0  0  0  0  0
    3.1120    6.0600    0.0000 H   0  0  0  0  0  0  0  0  0  0  0  0
    5.7196   -2.3323    0.0000 H   0  0  0  0  0  0  0  0  0  0  0  0
    6.1181   -3.0226    0.0000 H   0  0  0  0  0  0  0  0  0  0  0  0
    3.9875    0.6677    0.0000 H   0  0  0  0  0  0  0  0  0  0  0  0
    4.3860   -0.0226    0.0000 H   0  0  0  0  0  0  0  0  0  0  0  0
    6.9407   -1.5477    0.0000 H   0  0  0  0  0  0  0  0  0  0  0  0
    6.5422   -0.8574    0.0000 H   0  0  0  0  0  0  0  0  0  0  0  0
    6.0747   -0.0477    0.0000 H   0  0  0  0  0  0  0  0  0  0  0  0
    5.6762    0.6426    0.0000 H   0  0  0  0  0  0  0  0  0  0  0  0
   11.8363   -2.9769    0.0000 H   0  0  0  0  0  0  0  0  0  0  0  0
   12.0632   -2.1300    0.0000 H   0  0  0  0  0  0  0  0  0  0  0  0
   11.2163   -1.9031    0.0000 H   0  0  0  0  0  0  0  0  0  0  0  0
    6.6401    6.0231    0.0000 H   0  0  0  0  0  0  0  0  0  0  0  0
    6.8671    6.8700    0.0000 H   0  0  0  0  0  0  0  0  0  0  0  0
    6.0201    7.0969    0.0000 H   0  0  0  0  0  0  0  0  0  0  0  0
  1 32  1  0  0  0  0
  1 33  1  0  0  0  0
  2 24  1  0  0  0  0
  2 30  1  0  0  0  0
  3 25  1  0  0  0  0
  3 31  1  0  0  0  0
  4 28  1  0  0  0  0
  4 34  1  0  0  0  0
  5 29  1  0  0  0  0
  5 35  1  0  0  0  0
  6 24  2  0  0  0  0
  7 25  2  0  0  0  0
  8 28  2  0  0  0  0
  9 29  2  0  0  0  0
 10 18  1  0  0  0  0
 10 20  1  0  0  0  0
 10 40  1  0  0  0  0
 11 19  1  0  0  0  0
 11 21  1  0  0  0  0
 11 41  1  0  0  0  0
 12 14  1  0  0  0  0
 12 16  1  0  0  0  0
 12 36  1  0  0  0  0
 12 37  1  0  0  0  0
 13 15  1  0  0  0  0
 13 17  1  0  0  0  0
 13 38  1  0  0  0  0
 13 39  1  0  0  0  0
 14 18  2  0  0  0  0
 14 24  1  0  0  0  0
 15 19  2  0  0  0  0
 15 25  1  0  0  0  0
 16 20  2  0  0  0  0
 16 28  1  0  0  0  0
 17 21  2  0  0  0  0
 17 29  1  0  0  0  0
 18 22  1  0  0  0  0
 19 23  1  0  0  0  0
 20 26  1  0  0  0  0
 21 27  1  0  0  0  0
 22 42  1  0  0  0  0
 22 43  1  0  0  0  0
 22 44  1  0  0  0  0
 23 45  1  0  0  0  0
 23 46  1  0  0  0  0
 23 47  1  0  0  0  0
 26 48  1  0  0  0  0
 26 49  1  0  0  0  0
 26 50  1  0  0  0  0
 27 51  1  0  0  0  0
 27 52  1  0  0  0  0
 27 53  1  0  0  0  0
 30 32  1  0  0  0  0
 30 54  1  0  0  0  0
 30 55  1  0  0  0  0
 31 33  1  0  0  0  0
 31 56  1  0  0  0  0
 31 57  1  0  0  0  0
 32 58  1  0  0  0  0
 32 59  1  0  0  0  0
 33 60  1  0  0  0  0
 33 61  1  0  0  0  0
 34 62  1  0  0  0  0
 34 63  1  0  0  0  0
 34 64  1  0  0  0  0
 35 65  1  0  0  0  0
 35 66  1  0  0  0  0
 35 67  1  0  0  0  0
M  END
> <PUBCHEM_COMPOUND_CID>
68805814

> <PUBCHEM_COMPOUND_CANONICALIZED>
1

> <PUBCHEM_CACTVS_COMPLEXITY>
943

> <PUBCHEM_CACTVS_HBOND_ACCEPTOR>
11

> <PUBCHEM_CACTVS_HBOND_DONOR>
2

> <PUBCHEM_CACTVS_ROTATABLE_BOND>
14

> <PUBCHEM_CACTVS_SUBSKEYS>
AAADcfB7PABAAAAAAAAAAAAAAAAAAAAAAAAgQAAAAAAAAAAAAAAAHgQQAAAADAilwAKCCALABAiIAgTQSAAAAAAgABAACAEAAEgABBIAIAACEAAEkACoIUKIJggAAAAAAAAAAAAAAAAAAAAAAAAAAAAAAA==

> <PUBCHEM_IUPAC_OPENEYE_NAME>
O5-[2-[2-(5-methoxycarbonyl-2,6-dimethyl-1,4-dihydropyridine-3-carbonyl)oxyethylsulfanyl]ethyl] O3-methyl 2,6-dimethyl-1,4-dihydropyridine-3,5-dicarboxylate

> <PUBCHEM_IUPAC_CAS_NAME>
2,6-dimethyl-1,4-dihydropyridine-3,5-dicarboxylic acid O5-[2-[2-[(5-methoxycarbonyl-2,6-dimethyl-1,4-dihydropyridin-3-yl)-oxomethoxy]ethylthio]ethyl] ester O3-methyl ester

> <PUBCHEM_IUPAC_NAME_MARKUP>
5-<I>O</I>-[2-[2-(5-methoxycarbonyl-2,6-dimethyl-1,4-dihydropyridine-3-carbonyl)oxyethylsulfanyl]ethyl] 3-<I>O</I>-methyl 2,6-dimethyl-1,4-dihydropyridine-3,5-dicarboxylate

> <PUBCHEM_IUPAC_NAME>
5-O-[2-[2-(5-methoxycarbonyl-2,6-dimethyl-1,4-dihydropyridine-3-carbonyl)oxyethylsulfanyl]ethyl] 3-O-methyl 2,6-dimethyl-1,4-dihydropyridine-3,5-dicarboxylate

> <PUBCHEM_IUPAC_SYSTEMATIC_NAME>
O5-[2-[2-[(5-methoxycarbonyl-2,6-dimethyl-1,4-dihydropyridin-3-yl)carbonyloxy]ethylsulfanyl]ethyl] O3-methyl 2,6-dimethyl-1,4-dihydropyridine-3,5-dicarboxylate

> <PUBCHEM_IUPAC_TRADITIONAL_NAME>
2,6-dimethyl-1,4-dihydropyridine-3,5-dicarboxylic acid O5-[2-[2-(5-carbomethoxy-2,6-dimethyl-1,4-dihydropyridine-3-carbonyl)oxyethylthio]ethyl] ester O3-methyl ester

> <PUBCHEM_IUPAC_INCHI>
InChI=1S/C24H32N2O8S/c1-13-17(21(27)31-5)11-19(15(3)25-13)23(29)33-7-9-35-10-8-34-24(30)20-12-18(22(28)32-6)14(2)26-16(20)4/h25-26H,7-12H2,1-6H3

> <PUBCHEM_IUPAC_INCHIKEY>
DGTLOIKLYHWFLN-UHFFFAOYSA-N

> <PUBCHEM_XLOGP3_AA>
2.6

> <PUBCHEM_EXACT_MASS>
508.18793716

> <PUBCHEM_MOLECULAR_FORMULA>
C24H32N2O8S

> <PUBCHEM_MOLECULAR_WEIGHT>
508.6

> <PUBCHEM_SMILES>
CC1=C(CC(=C(N1)C)C(=O)OCCSCCOC(=O)C2=C(NC(=C(C2)C(=O)OC)C)C)C(=O)OC

> <PUBCHEM_OPENEYE_CAN_SMILES>
CC1=C(CC(=C(N1)C)C(=O)OCCSCCOC(=O)C2=C(NC(=C(C2)C(=O)OC)C)C)C(=O)OC

> <PUBCHEM_OPENEYE_ISO_SMILES>
CC1=C(CC(=C(N1)C)C(=O)OCCSCCOC(=O)C2=C(NC(=C(C2)C(=O)OC)C)C)C(=O)OC

> <PUBCHEM_CACTVS_TPSA>
155

> <PUBCHEM_MONOISOTOPIC_WEIGHT>
508.18793716

> <PUBCHEM_TOTAL_CHARGE>
0

> <PUBCHEM_HEAVY_ATOM_COUNT>
35

> <PUBCHEM_ATOM_DEF_STEREO_COUNT>
0

> <PUBCHEM_ATOM_UDEF_STEREO_COUNT>
0

> <PUBCHEM_BOND_DEF_STEREO_COUNT>
0

> <PUBCHEM_BOND_UDEF_STEREO_COUNT>
0

> <PUBCHEM_ISOTOPIC_ATOM_COUNT>
0

> <PUBCHEM_COMPONENT_COUNT>
1

> <PUBCHEM_CACTVS_TAUTO_COUNT>
-1

> <PUBCHEM_COORDINATE_TYPE>
1
5
255

$$$$
