69347
  -OEChem-04042505502D

104103  0     0  0  0  0  0  0999 V2000
   15.8564    0.2500    0.0000 O   0  0  0  0  0  0  0  0  0  0  0  0
   18.4545   -0.2500    0.0000 O   0  0  0  0  0  0  0  0  0  0  0  0
   14.9904   -1.2500    0.0000 O   0  0  0  0  0  0  0  0  0  0  0  0
   19.3205    1.2500    0.0000 O   0  0  0  0  0  0  0  0  0  0  0  0
    8.0622   -0.2500    0.0000 C   0  0  0  0  0  0  0  0  0  0  0  0
   26.2487    0.2500    0.0000 C   0  0  0  0  0  0  0  0  0  0  0  0
    8.9282    0.2500    0.0000 C   0  0  0  0  0  0  0  0  0  0  0  0
   25.3827   -0.2500    0.0000 C   0  0  0  0  0  0  0  0  0  0  0  0
    7.1962    0.2500    0.0000 C   0  0  0  0  0  0  0  0  0  0  0  0
   27.1147   -0.2500    0.0000 C   0  0  0  0  0  0  0  0  0  0  0  0
    9.7942   -0.2500    0.0000 C   0  0  0  0  0  0  0  0  0  0  0  0
   24.5167    0.2500    0.0000 C   0  0  0  0  0  0  0  0  0  0  0  0
    6.3301   -0.2500    0.0000 C   0  0  0  0  0  0  0  0  0  0  0  0
   27.9808    0.2500    0.0000 C   0  0  0  0  0  0  0  0  0  0  0  0
   10.6603    0.2500    0.0000 C   0  0  0  0  0  0  0  0  0  0  0  0
   23.6506   -0.2500    0.0000 C   0  0  0  0  0  0  0  0  0  0  0  0
    5.4641    0.2500    0.0000 C   0  0  0  0  0  0  0  0  0  0  0  0
   28.8468   -0.2500    0.0000 C   0  0  0  0  0  0  0  0  0  0  0  0
   11.5263   -0.2500    0.0000 C   0  0  0  0  0  0  0  0  0  0  0  0
   22.7846    0.2500    0.0000 C   0  0  0  0  0  0  0  0  0  0  0  0
    4.5981   -0.2500    0.0000 C   0  0  0  0  0  0  0  0  0  0  0  0
   29.7128    0.2500    0.0000 C   0  0  0  0  0  0  0  0  0  0  0  0
   12.3923    0.2500    0.0000 C   0  0  0  0  0  0  0  0  0  0  0  0
   21.9186   -0.2500    0.0000 C   0  0  0  0  0  0  0  0  0  0  0  0
    3.7320    0.2500    0.0000 C   0  0  0  0  0  0  0  0  0  0  0  0
   30.5788   -0.2500    0.0000 C   0  0  0  0  0  0  0  0  0  0  0  0
   13.2583   -0.2500    0.0000 C   0  0  0  0  0  0  0  0  0  0  0  0
   21.0526    0.2500    0.0000 C   0  0  0  0  0  0  0  0  0  0  0  0
    2.8660   -0.2500    0.0000 C   0  0  0  0  0  0  0  0  0  0  0  0
   31.4449    0.2500    0.0000 C   0  0  0  0  0  0  0  0  0  0  0  0
   14.1244    0.2500    0.0000 C   0  0  0  0  0  0  0  0  0  0  0  0
   20.1865   -0.2500    0.0000 C   0  0  0  0  0  0  0  0  0  0  0  0
    2.0000    0.2500    0.0000 C   0  0  0  0  0  0  0  0  0  0  0  0
   32.3109   -0.2500    0.0000 C   0  0  0  0  0  0  0  0  0  0  0  0
   14.9904   -0.2500    0.0000 C   0  0  0  0  0  0  0  0  0  0  0  0
   19.3205    0.2500    0.0000 C   0  0  0  0  0  0  0  0  0  0  0  0
   16.7224   -0.2500    0.0000 C   0  0  0  0  0  0  0  0  0  0  0  0
   17.5885    0.2500    0.0000 C   0  0  0  0  0  0  0  0  0  0  0  0
    7.6636   -0.7249    0.0000 H   0  0  0  0  0  0  0  0  0  0  0  0
    8.4607   -0.7249    0.0000 H   0  0  0  0  0  0  0  0  0  0  0  0
   26.6472    0.7249    0.0000 H   0  0  0  0  0  0  0  0  0  0  0  0
   25.8502    0.7249    0.0000 H   0  0  0  0  0  0  0  0  0  0  0  0
    9.3267    0.7249    0.0000 H   0  0  0  0  0  0  0  0  0  0  0  0
    8.5297    0.7249    0.0000 H   0  0  0  0  0  0  0  0  0  0  0  0
   24.9842   -0.7249    0.0000 H   0  0  0  0  0  0  0  0  0  0  0  0
   25.7812   -0.7249    0.0000 H   0  0  0  0  0  0  0  0  0  0  0  0
    7.5947    0.7249    0.0000 H   0  0  0  0  0  0  0  0  0  0  0  0
    6.7976    0.7249    0.0000 H   0  0  0  0  0  0  0  0  0  0  0  0
   26.7162   -0.7249    0.0000 H   0  0  0  0  0  0  0  0  0  0  0  0
   27.5133   -0.7249    0.0000 H   0  0  0  0  0  0  0  0  0  0  0  0
    9.3957   -0.7249    0.0000 H   0  0  0  0  0  0  0  0  0  0  0  0
   10.1928   -0.7249    0.0000 H   0  0  0  0  0  0  0  0  0  0  0  0
   24.9152    0.7249    0.0000 H   0  0  0  0  0  0  0  0  0  0  0  0
   24.1181    0.7249    0.0000 H   0  0  0  0  0  0  0  0  0  0  0  0
    5.9316   -0.7249    0.0000 H   0  0  0  0  0  0  0  0  0  0  0  0
    6.7287   -0.7249    0.0000 H   0  0  0  0  0  0  0  0  0  0  0  0
   28.3793    0.7249    0.0000 H   0  0  0  0  0  0  0  0  0  0  0  0
   27.5822    0.7249    0.0000 H   0  0  0  0  0  0  0  0  0  0  0  0
   11.0588    0.7249    0.0000 H   0  0  0  0  0  0  0  0  0  0  0  0
   10.2617    0.7249    0.0000 H   0  0  0  0  0  0  0  0  0  0  0  0
   23.2521   -0.7249    0.0000 H   0  0  0  0  0  0  0  0  0  0  0  0
   24.0492   -0.7249    0.0000 H   0  0  0  0  0  0  0  0  0  0  0  0
    5.8626    0.7249    0.0000 H   0  0  0  0  0  0  0  0  0  0  0  0
    5.0656    0.7249    0.0000 H   0  0  0  0  0  0  0  0  0  0  0  0
   28.4483   -0.7249    0.0000 H   0  0  0  0  0  0  0  0  0  0  0  0
   29.2453   -0.7249    0.0000 H   0  0  0  0  0  0  0  0  0  0  0  0
   11.1278   -0.7249    0.0000 H   0  0  0  0  0  0  0  0  0  0  0  0
   11.9248   -0.7249    0.0000 H   0  0  0  0  0  0  0  0  0  0  0  0
   23.1831    0.7249    0.0000 H   0  0  0  0  0  0  0  0  0  0  0  0
   22.3861    0.7249    0.0000 H   0  0  0  0  0  0  0  0  0  0  0  0
    4.1996   -0.7249    0.0000 H   0  0  0  0  0  0  0  0  0  0  0  0
    4.9966   -0.7249    0.0000 H   0  0  0  0  0  0  0  0  0  0  0  0
   30.1113    0.7249    0.0000 H   0  0  0  0  0  0  0  0  0  0  0  0
   29.3143    0.7249    0.0000 H   0  0  0  0  0  0  0  0  0  0  0  0
   12.7908    0.7249    0.0000 H   0  0  0  0  0  0  0  0  0  0  0  0
   11.9938    0.7249    0.0000 H   0  0  0  0  0  0  0  0  0  0  0  0
   21.5201   -0.7249    0.0000 H   0  0  0  0  0  0  0  0  0  0  0  0
   22.3171   -0.7249    0.0000 H   0  0  0  0  0  0  0  0  0  0  0  0
    4.1306    0.7249    0.0000 H   0  0  0  0  0  0  0  0  0  0  0  0
    3.3335    0.7249    0.0000 H   0  0  0  0  0  0  0  0  0  0  0  0
   30.1803   -0.7249    0.0000 H   0  0  0  0  0  0  0  0  0  0  0  0
   30.9774   -0.7249    0.0000 H   0  0  0  0  0  0  0  0  0  0  0  0
   12.8598   -0.7249    0.0000 H   0  0  0  0  0  0  0  0  0  0  0  0
   13.6569   -0.7249    0.0000 H   0  0  0  0  0  0  0  0  0  0  0  0
   21.4511    0.7249    0.0000 H   0  0  0  0  0  0  0  0  0  0  0  0
   20.6540    0.7249    0.0000 H   0  0  0  0  0  0  0  0  0  0  0  0
    2.4675   -0.7249    0.0000 H   0  0  0  0  0  0  0  0  0  0  0  0
    3.2646   -0.7249    0.0000 H   0  0  0  0  0  0  0  0  0  0  0  0
   31.8434    0.7249    0.0000 H   0  0  0  0  0  0  0  0  0  0  0  0
   31.0463    0.7249    0.0000 H   0  0  0  0  0  0  0  0  0  0  0  0
   14.5229    0.7249    0.0000 H   0  0  0  0  0  0  0  0  0  0  0  0
   13.7258    0.7249    0.0000 H   0  0  0  0  0  0  0  0  0  0  0  0
   19.7880   -0.7249    0.0000 H   0  0  0  0  0  0  0  0  0  0  0  0
   20.5851   -0.7249    0.0000 H   0  0  0  0  0  0  0  0  0  0  0  0
    2.3100    0.7869    0.0000 H   0  0  0  0  0  0  0  0  0  0  0  0
    1.4631    0.5600    0.0000 H   0  0  0  0  0  0  0  0  0  0  0  0
    1.6900   -0.2869    0.0000 H   0  0  0  0  0  0  0  0  0  0  0  0
   32.0009   -0.7869    0.0000 H   0  0  0  0  0  0  0  0  0  0  0  0
   32.8478   -0.5600    0.0000 H   0  0  0  0  0  0  0  0  0  0  0  0
   32.6209    0.2869    0.0000 H   0  0  0  0  0  0  0  0  0  0  0  0
   16.3239   -0.7249    0.0000 H   0  0  0  0  0  0  0  0  0  0  0  0
   17.1210   -0.7249    0.0000 H   0  0  0  0  0  0  0  0  0  0  0  0
   17.9870    0.7249    0.0000 H   0  0  0  0  0  0  0  0  0  0  0  0
   17.1899    0.7249    0.0000 H   0  0  0  0  0  0  0  0  0  0  0  0
  1 35  1  0  0  0  0
  1 37  1  0  0  0  0
  2 36  1  0  0  0  0
  2 38  1  0  0  0  0
  3 35  2  0  0  0  0
  4 36  2  0  0  0  0
  5  7  1  0  0  0  0
  5  9  1  0  0  0  0
  5 39  1  0  0  0  0
  5 40  1  0  0  0  0
  6  8  1  0  0  0  0
  6 10  1  0  0  0  0
  6 41  1  0  0  0  0
  6 42  1  0  0  0  0
  7 11  1  0  0  0  0
  7 43  1  0  0  0  0
  7 44  1  0  0  0  0
  8 12  1  0  0  0  0
  8 45  1  0  0  0  0
  8 46  1  0  0  0  0
  9 13  1  0  0  0  0
  9 47  1  0  0  0  0
  9 48  1  0  0  0  0
 10 14  1  0  0  0  0
 10 49  1  0  0  0  0
 10 50  1  0  0  0  0
 11 15  1  0  0  0  0
 11 51  1  0  0  0  0
 11 52  1  0  0  0  0
 12 16  1  0  0  0  0
 12 53  1  0  0  0  0
 12 54  1  0  0  0  0
 13 17  1  0  0  0  0
 13 55  1  0  0  0  0
 13 56  1  0  0  0  0
 14 18  1  0  0  0  0
 14 57  1  0  0  0  0
 14 58  1  0  0  0  0
 15 19  1  0  0  0  0
 15 59  1  0  0  0  0
 15 60  1  0  0  0  0
 16 20  1  0  0  0  0
 16 61  1  0  0  0  0
 16 62  1  0  0  0  0
 17 21  1  0  0  0  0
 17 63  1  0  0  0  0
 17 64  1  0  0  0  0
 18 22  1  0  0  0  0
 18 65  1  0  0  0  0
 18 66  1  0  0  0  0
 19 23  1  0  0  0  0
 19 67  1  0  0  0  0
 19 68  1  0  0  0  0
 20 24  1  0  0  0  0
 20 69  1  0  0  0  0
 20 70  1  0  0  0  0
 21 25  1  0  0  0  0
 21 71  1  0  0  0  0
 21 72  1  0  0  0  0
 22 26  1  0  0  0  0
 22 73  1  0  0  0  0
 22 74  1  0  0  0  0
 23 27  1  0  0  0  0
 23 75  1  0  0  0  0
 23 76  1  0  0  0  0
 24 28  1  0  0  0  0
 24 77  1  0  0  0  0
 24 78  1  0  0  0  0
 25 29  1  0  0  0  0
 25 79  1  0  0  0  0
 25 80  1  0  0  0  0
 26 30  1  0  0  0  0
 26 81  1  0  0  0  0
 26 82  1  0  0  0  0
 27 31  1  0  0  0  0
 27 83  1  0  0  0  0
 27 84  1  0  0  0  0
 28 32  1  0  0  0  0
 28 85  1  0  0  0  0
 28 86  1  0  0  0  0
 29 33  1  0  0  0  0
 29 87  1  0  0  0  0
 29 88  1  0  0  0  0
 30 34  1  0  0  0  0
 30 89  1  0  0  0  0
 30 90  1  0  0  0  0
 31 35  1  0  0  0  0
 31 91  1  0  0  0  0
 31 92  1  0  0  0  0
 32 36  1  0  0  0  0
 32 93  1  0  0  0  0
 32 94  1  0  0  0  0
 33 95  1  0  0  0  0
 33 96  1  0  0  0  0
 33 97  1  0  0  0  0
 34 98  1  0  0  0  0
 34 99  1  0  0  0  0
 34100  1  0  0  0  0
 37 38  1  0  0  0  0
 37101  1  0  0  0  0
 37102  1  0  0  0  0
 38103  1  0  0  0  0
 38104  1  0  0  0  0
M  END
> <PUBCHEM_COMPOUND_CID>
69347

> <PUBCHEM_COMPOUND_CANONICALIZED>
1

> <PUBCHEM_CACTVS_COMPLEXITY>
447

> <PUBCHEM_CACTVS_HBOND_ACCEPTOR>
4

> <PUBCHEM_CACTVS_HBOND_DONOR>
0

> <PUBCHEM_CACTVS_ROTATABLE_BOND>
33

> <PUBCHEM_CACTVS_SUBSKEYS>
AAADcfB8OAAAAAAAAAAAAAAAAAAAAAAAAAAAAAAAAAAAAAAAAAAAGgAAAAAACACggAICCAAABAAIAACQCAAAAAAAAAAAAAEAAAABABIAAAACAAAEAAACAAGIyKCAAAAAAAAAAAAAAAAAAAAAAAAAAAAAAA==

> <PUBCHEM_IUPAC_OPENEYE_NAME>
2-hexadecanoyloxyethyl hexadecanoate

> <PUBCHEM_IUPAC_CAS_NAME>
hexadecanoic acid 2-(1-oxohexadecoxy)ethyl ester

> <PUBCHEM_IUPAC_NAME_MARKUP>
2-hexadecanoyloxyethyl hexadecanoate

> <PUBCHEM_IUPAC_NAME>
2-hexadecanoyloxyethyl hexadecanoate

> <PUBCHEM_IUPAC_SYSTEMATIC_NAME>
2-hexadecanoyloxyethyl hexadecanoate

> <PUBCHEM_IUPAC_TRADITIONAL_NAME>
palmitic acid 2-hexadecanoyloxyethyl ester

> <PUBCHEM_IUPAC_INCHI>
InChI=1S/C34H66O4/c1-3-5-7-9-11-13-15-17-19-21-23-25-27-29-33(35)37-31-32-38-34(36)30-28-26-24-22-20-18-16-14-12-10-8-6-4-2/h3-32H2,1-2H3

> <PUBCHEM_IUPAC_INCHIKEY>
IKVCSHRLYCDSFD-UHFFFAOYSA-N

> <PUBCHEM_XLOGP3_AA>
14.7

> <PUBCHEM_EXACT_MASS>
538.49611058

> <PUBCHEM_MOLECULAR_FORMULA>
C34H66O4

> <PUBCHEM_MOLECULAR_WEIGHT>
538.9

> <PUBCHEM_SMILES>
CCCCCCCCCCCCCCCC(=O)OCCOC(=O)CCCCCCCCCCCCCCC

> <PUBCHEM_OPENEYE_CAN_SMILES>
CCCCCCCCCCCCCCCC(=O)OCCOC(=O)CCCCCCCCCCCCCCC

> <PUBCHEM_OPENEYE_ISO_SMILES>
CCCCCCCCCCCCCCCC(=O)OCCOC(=O)CCCCCCCCCCCCCCC

> <PUBCHEM_CACTVS_TPSA>
52.6

> <PUBCHEM_MONOISOTOPIC_WEIGHT>
538.49611058

> <PUBCHEM_TOTAL_CHARGE>
0

> <PUBCHEM_HEAVY_ATOM_COUNT>
38

> <PUBCHEM_ATOM_DEF_STEREO_COUNT>
0

> <PUBCHEM_ATOM_UDEF_STEREO_COUNT>
0

> <PUBCHEM_BOND_DEF_STEREO_COUNT>
0

> <PUBCHEM_BOND_UDEF_STEREO_COUNT>
0

> <PUBCHEM_ISOTOPIC_ATOM_COUNT>
0

> <PUBCHEM_COMPONENT_COUNT>
1

> <PUBCHEM_CACTVS_TAUTO_COUNT>
-1

> <PUBCHEM_COORDINATE_TYPE>
1
5
255

$$$$
