6966
  -OEChem-04042512222D

 18 20  0     0  0  0  0  0  0999 V2000
    2.0000    0.0000    0.0000 O   0  0  0  0  0  0  0  0  0  0  0  0
    6.7917    0.0000    0.0000 O   0  0  0  0  0  0  0  0  0  0  0  0
    2.2729    1.7552    0.0000 O   0  0  0  0  0  0  0  0  0  0  0  0
    2.2729   -1.7552    0.0000 O   0  0  0  0  0  0  0  0  0  0  0  0
    6.5188    1.7552    0.0000 O   0  0  0  0  0  0  0  0  0  0  0  0
    6.5188   -1.7552    0.0000 O   0  0  0  0  0  0  0  0  0  0  0  0
    3.5298    0.5000    0.0000 C   0  0  0  0  0  0  0  0  0  0  0  0
    3.5298   -0.5000    0.0000 C   0  0  0  0  0  0  0  0  0  0  0  0
    5.2619    0.5000    0.0000 C   0  0  0  0  0  0  0  0  0  0  0  0
    5.2619   -0.5000    0.0000 C   0  0  0  0  0  0  0  0  0  0  0  0
    4.3958    1.0000    0.0000 C   0  0  0  0  0  0  0  0  0  0  0  0
    4.3958   -1.0000    0.0000 C   0  0  0  0  0  0  0  0  0  0  0  0
    2.5836    0.8047    0.0000 C   0  0  0  0  0  0  0  0  0  0  0  0
    2.5836   -0.8047    0.0000 C   0  0  0  0  0  0  0  0  0  0  0  0
    6.2081    0.8047    0.0000 C   0  0  0  0  0  0  0  0  0  0  0  0
    6.2081   -0.8047    0.0000 C   0  0  0  0  0  0  0  0  0  0  0  0
    4.3958    1.6200    0.0000 H   0  0  0  0  0  0  0  0  0  0  0  0
    4.3958   -1.6200    0.0000 H   0  0  0  0  0  0  0  0  0  0  0  0
  1 13  1  0  0  0  0
  1 14  1  0  0  0  0
  2 15  1  0  0  0  0
  2 16  1  0  0  0  0
  3 13  2  0  0  0  0
  4 14  2  0  0  0  0
  5 15  2  0  0  0  0
  6 16  2  0  0  0  0
  7  8  2  0  0  0  0
  7 11  1  0  0  0  0
  7 13  1  0  0  0  0
  8 12  1  0  0  0  0
  8 14  1  0  0  0  0
  9 10  1  0  0  0  0
  9 11  2  0  0  0  0
  9 15  1  0  0  0  0
 10 12  2  0  0  0  0
 10 16  1  0  0  0  0
 11 17  1  0  0  0  0
 12 18  1  0  0  0  0
M  END
> <PUBCHEM_COMPOUND_CID>
6966

> <PUBCHEM_COMPOUND_CANONICALIZED>
1

> <PUBCHEM_CACTVS_COMPLEXITY>
349

> <PUBCHEM_CACTVS_HBOND_ACCEPTOR>
6

> <PUBCHEM_CACTVS_HBOND_DONOR>
0

> <PUBCHEM_CACTVS_ROTATABLE_BOND>
0

> <PUBCHEM_CACTVS_SUBSKEYS>
AAADcQBwOAAAAAAAAAAAAAAAAAAAASJAAAAwAAAAAAAAAEgBAAAAGgAAAAAADACAmAAwCIAABACIAiDSCAACAAAkAAAAiAEACMgIJjKANBiCMQAkwAEIqYeL7viOwAACAAAQAACAAAQAACAAAAAAAAAAAA==

> <PUBCHEM_IUPAC_OPENEYE_NAME>
furo[3,4-f]isobenzofuran-1,3,5,7-tetrone

> <PUBCHEM_IUPAC_CAS_NAME>
furo[3,4-f]isobenzofuran-1,3,5,7-tetrone

> <PUBCHEM_IUPAC_NAME_MARKUP>
furo[3,4-f][2]benzofuran-1,3,5,7-tetrone

> <PUBCHEM_IUPAC_NAME>
furo[3,4-f][2]benzofuran-1,3,5,7-tetrone

> <PUBCHEM_IUPAC_SYSTEMATIC_NAME>
furo[3,4-f][2]benzofuran-1,3,5,7-tetrone

> <PUBCHEM_IUPAC_TRADITIONAL_NAME>
fur[3,4-f]isobenzofuran-1,3,5,7-diquinone

> <PUBCHEM_IUPAC_INCHI>
InChI=1S/C10H2O6/c11-7-3-1-4-6(10(14)16-8(4)12)2-5(3)9(13)15-7/h1-2H

> <PUBCHEM_IUPAC_INCHIKEY>
ANSXAPJVJOKRDJ-UHFFFAOYSA-N

> <PUBCHEM_XLOGP3_AA>
0.7

> <PUBCHEM_EXACT_MASS>
217.98513778

> <PUBCHEM_MOLECULAR_FORMULA>
C10H2O6

> <PUBCHEM_MOLECULAR_WEIGHT>
218.12

> <PUBCHEM_SMILES>
C1=C2C(=CC3=C1C(=O)OC3=O)C(=O)OC2=O

> <PUBCHEM_OPENEYE_CAN_SMILES>
C1=C2C(=CC3=C1C(=O)OC3=O)C(=O)OC2=O

> <PUBCHEM_OPENEYE_ISO_SMILES>
C1=C2C(=CC3=C1C(=O)OC3=O)C(=O)OC2=O

> <PUBCHEM_CACTVS_TPSA>
86.7

> <PUBCHEM_MONOISOTOPIC_WEIGHT>
217.98513778

> <PUBCHEM_TOTAL_CHARGE>
0

> <PUBCHEM_HEAVY_ATOM_COUNT>
16

> <PUBCHEM_ATOM_DEF_STEREO_COUNT>
0

> <PUBCHEM_ATOM_UDEF_STEREO_COUNT>
0

> <PUBCHEM_BOND_DEF_STEREO_COUNT>
0

> <PUBCHEM_BOND_UDEF_STEREO_COUNT>
0

> <PUBCHEM_ISOTOPIC_ATOM_COUNT>
0

> <PUBCHEM_COMPONENT_COUNT>
1

> <PUBCHEM_CACTVS_TAUTO_COUNT>
-1

> <PUBCHEM_COORDINATE_TYPE>
1
5
255

> <PUBCHEM_BONDANNOTATIONS>
1  13  8
1  14  8
10  12  8
10  16  8
2  15  8
2  16  8
7  11  8
7  13  8
7  8  8
8  12  8
8  14  8
9  10  8
9  11  8
9  15  8

$$$$
