70431
  -OEChem-04042505422D

 96 97  0     0  0  0  0  0  0999 V2000
    5.4641   -0.5000    0.0000 S   0  0  0  0  0  0  0  0  0  0  0  0
    8.9282   -0.5000    0.0000 S   0  0  0  0  0  0  0  0  0  0  0  0
    3.7320    4.5000    0.0000 O   0  0  0  0  0  0  0  0  0  0  0  0
    7.1962    2.5000    0.0000 N   0  0  0  0  0  0  0  0  0  0  0  0
    8.0622    1.0000    0.0000 N   0  0  0  0  0  0  0  0  0  0  0  0
    6.3301    1.0000    0.0000 N   0  0  0  0  0  0  0  0  0  0  0  0
    7.1962   -0.5000    0.0000 N   0  0  0  0  0  0  0  0  0  0  0  0
    3.7320    2.5000    0.0000 C   0  0  0  0  0  0  0  0  0  0  0  0
    5.4641    5.5000    0.0000 C   0  0  0  0  0  0  0  0  0  0  0  0
    4.5981    3.0000    0.0000 C   0  0  0  0  0  0  0  0  0  0  0  0
    5.4641    4.5000    0.0000 C   0  0  0  0  0  0  0  0  0  0  0  0
    4.5981    4.0000    0.0000 C   0  0  0  0  0  0  0  0  0  0  0  0
    2.8660    2.0000    0.0000 C   0  0  0  0  0  0  0  0  0  0  0  0
    4.2320    1.6340    0.0000 C   0  0  0  0  0  0  0  0  0  0  0  0
    3.2320    3.3660    0.0000 C   0  0  0  0  0  0  0  0  0  0  0  0
    5.4641    6.5000    0.0000 C   0  0  0  0  0  0  0  0  0  0  0  0
    6.4641    5.5000    0.0000 C   0  0  0  0  0  0  0  0  0  0  0  0
    4.4641    5.5000    0.0000 C   0  0  0  0  0  0  0  0  0  0  0  0
    5.4641    2.5000    0.0000 C   0  0  0  0  0  0  0  0  0  0  0  0
    6.3301    4.0000    0.0000 C   0  0  0  0  0  0  0  0  0  0  0  0
    6.3301    3.0000    0.0000 C   0  0  0  0  0  0  0  0  0  0  0  0
    3.7320   -3.5000    0.0000 C   0  0  0  0  0  0  0  0  0  0  0  0
   10.6603   -3.5000    0.0000 C   0  0  0  0  0  0  0  0  0  0  0  0
    3.7320   -4.5000    0.0000 C   0  0  0  0  0  0  0  0  0  0  0  0
   10.6603   -4.5000    0.0000 C   0  0  0  0  0  0  0  0  0  0  0  0
    4.5981   -3.0000    0.0000 C   0  0  0  0  0  0  0  0  0  0  0  0
    9.7942   -3.0000    0.0000 C   0  0  0  0  0  0  0  0  0  0  0  0
    7.1962    1.5000    0.0000 C   0  0  0  0  0  0  0  0  0  0  0  0
    2.8660   -5.0000    0.0000 C   0  0  0  0  0  0  0  0  0  0  0  0
   11.5263   -5.0000    0.0000 C   0  0  0  0  0  0  0  0  0  0  0  0
    4.5981   -2.0000    0.0000 C   0  0  0  0  0  0  0  0  0  0  0  0
    9.7942   -2.0000    0.0000 C   0  0  0  0  0  0  0  0  0  0  0  0
    2.8660   -6.0000    0.0000 C   0  0  0  0  0  0  0  0  0  0  0  0
   11.5263   -6.0000    0.0000 C   0  0  0  0  0  0  0  0  0  0  0  0
    5.4641   -1.5000    0.0000 C   0  0  0  0  0  0  0  0  0  0  0  0
    8.9282   -1.5000    0.0000 C   0  0  0  0  0  0  0  0  0  0  0  0
    6.3301    0.0000    0.0000 C   0  0  0  0  0  0  0  0  0  0  0  0
    8.0622   -0.0000    0.0000 C   0  0  0  0  0  0  0  0  0  0  0  0
    2.0000   -6.5000    0.0000 C   0  0  0  0  0  0  0  0  0  0  0  0
   12.3923   -6.5000    0.0000 C   0  0  0  0  0  0  0  0  0  0  0  0
    2.5560    2.5369    0.0000 H   0  0  0  0  0  0  0  0  0  0  0  0
    2.3291    1.6900    0.0000 H   0  0  0  0  0  0  0  0  0  0  0  0
    3.1760    1.4631    0.0000 H   0  0  0  0  0  0  0  0  0  0  0  0
    3.6951    1.3240    0.0000 H   0  0  0  0  0  0  0  0  0  0  0  0
    4.5420    1.0970    0.0000 H   0  0  0  0  0  0  0  0  0  0  0  0
    4.7690    1.9440    0.0000 H   0  0  0  0  0  0  0  0  0  0  0  0
    3.7690    3.6760    0.0000 H   0  0  0  0  0  0  0  0  0  0  0  0
    2.9220    3.9030    0.0000 H   0  0  0  0  0  0  0  0  0  0  0  0
    2.6951    3.0560    0.0000 H   0  0  0  0  0  0  0  0  0  0  0  0
    6.0841    6.5000    0.0000 H   0  0  0  0  0  0  0  0  0  0  0  0
    5.4641    7.1200    0.0000 H   0  0  0  0  0  0  0  0  0  0  0  0
    4.8441    6.5000    0.0000 H   0  0  0  0  0  0  0  0  0  0  0  0
    6.4641    4.8800    0.0000 H   0  0  0  0  0  0  0  0  0  0  0  0
    7.0841    5.5000    0.0000 H   0  0  0  0  0  0  0  0  0  0  0  0
    6.4641    6.1200    0.0000 H   0  0  0  0  0  0  0  0  0  0  0  0
    4.4641    6.1200    0.0000 H   0  0  0  0  0  0  0  0  0  0  0  0
    3.8441    5.5000    0.0000 H   0  0  0  0  0  0  0  0  0  0  0  0
    4.4641    4.8800    0.0000 H   0  0  0  0  0  0  0  0  0  0  0  0
    5.4641    1.8800    0.0000 H   0  0  0  0  0  0  0  0  0  0  0  0
    6.8671    4.3100    0.0000 H   0  0  0  0  0  0  0  0  0  0  0  0
    7.7331    2.8100    0.0000 H   0  0  0  0  0  0  0  0  0  0  0  0
    3.7320    5.1200    0.0000 H   0  0  0  0  0  0  0  0  0  0  0  0
    3.5200   -2.9174    0.0000 H   0  0  0  0  0  0  0  0  0  0  0  0
    3.1215   -3.6077    0.0000 H   0  0  0  0  0  0  0  0  0  0  0  0
   11.2708   -3.6077    0.0000 H   0  0  0  0  0  0  0  0  0  0  0  0
   10.8723   -2.9174    0.0000 H   0  0  0  0  0  0  0  0  0  0  0  0
    3.9441   -5.0826    0.0000 H   0  0  0  0  0  0  0  0  0  0  0  0
    4.3426   -4.3923    0.0000 H   0  0  0  0  0  0  0  0  0  0  0  0
   10.0497   -4.3923    0.0000 H   0  0  0  0  0  0  0  0  0  0  0  0
   10.4482   -5.0826    0.0000 H   0  0  0  0  0  0  0  0  0  0  0  0
    4.8101   -3.5826    0.0000 H   0  0  0  0  0  0  0  0  0  0  0  0
    5.2087   -2.8923    0.0000 H   0  0  0  0  0  0  0  0  0  0  0  0
    9.1836   -2.8923    0.0000 H   0  0  0  0  0  0  0  0  0  0  0  0
    9.5822   -3.5826    0.0000 H   0  0  0  0  0  0  0  0  0  0  0  0
    2.6540   -4.4174    0.0000 H   0  0  0  0  0  0  0  0  0  0  0  0
    2.2554   -5.1077    0.0000 H   0  0  0  0  0  0  0  0  0  0  0  0
   12.1369   -5.1077    0.0000 H   0  0  0  0  0  0  0  0  0  0  0  0
   11.7383   -4.4174    0.0000 H   0  0  0  0  0  0  0  0  0  0  0  0
    4.3860   -1.4174    0.0000 H   0  0  0  0  0  0  0  0  0  0  0  0
    3.9875   -2.1077    0.0000 H   0  0  0  0  0  0  0  0  0  0  0  0
   10.4048   -2.1077    0.0000 H   0  0  0  0  0  0  0  0  0  0  0  0
   10.0063   -1.4174    0.0000 H   0  0  0  0  0  0  0  0  0  0  0  0
    3.0781   -6.5826    0.0000 H   0  0  0  0  0  0  0  0  0  0  0  0
    3.4766   -5.8923    0.0000 H   0  0  0  0  0  0  0  0  0  0  0  0
   10.9157   -5.8923    0.0000 H   0  0  0  0  0  0  0  0  0  0  0  0
   11.3142   -6.5826    0.0000 H   0  0  0  0  0  0  0  0  0  0  0  0
    5.6762   -2.0826    0.0000 H   0  0  0  0  0  0  0  0  0  0  0  0
    6.0747   -1.3923    0.0000 H   0  0  0  0  0  0  0  0  0  0  0  0
    8.3176   -1.3923    0.0000 H   0  0  0  0  0  0  0  0  0  0  0  0
    8.7162   -2.0826    0.0000 H   0  0  0  0  0  0  0  0  0  0  0  0
    1.6900   -5.9631    0.0000 H   0  0  0  0  0  0  0  0  0  0  0  0
    1.4631   -6.8100    0.0000 H   0  0  0  0  0  0  0  0  0  0  0  0
    2.3100   -7.0369    0.0000 H   0  0  0  0  0  0  0  0  0  0  0  0
   12.0823   -7.0369    0.0000 H   0  0  0  0  0  0  0  0  0  0  0  0
   12.9292   -6.8100    0.0000 H   0  0  0  0  0  0  0  0  0  0  0  0
   12.7023   -5.9631    0.0000 H   0  0  0  0  0  0  0  0  0  0  0  0
  1 35  1  0  0  0  0
  1 37  1  0  0  0  0
  2 36  1  0  0  0  0
  2 38  1  0  0  0  0
  3 12  1  0  0  0  0
  3 62  1  0  0  0  0
  4 21  1  0  0  0  0
  4 28  1  0  0  0  0
  4 61  1  0  0  0  0
  5 28  2  0  0  0  0
  5 38  1  0  0  0  0
  6 28  1  0  0  0  0
  6 37  2  0  0  0  0
  7 37  1  0  0  0  0
  7 38  2  0  0  0  0
  8 10  1  0  0  0  0
  8 13  1  0  0  0  0
  8 14  1  0  0  0  0
  8 15  1  0  0  0  0
  9 11  1  0  0  0  0
  9 16  1  0  0  0  0
  9 17  1  0  0  0  0
  9 18  1  0  0  0  0
 10 12  2  0  0  0  0
 10 19  1  0  0  0  0
 11 12  1  0  0  0  0
 11 20  2  0  0  0  0
 13 41  1  0  0  0  0
 13 42  1  0  0  0  0
 13 43  1  0  0  0  0
 14 44  1  0  0  0  0
 14 45  1  0  0  0  0
 14 46  1  0  0  0  0
 15 47  1  0  0  0  0
 15 48  1  0  0  0  0
 15 49  1  0  0  0  0
 16 50  1  0  0  0  0
 16 51  1  0  0  0  0
 16 52  1  0  0  0  0
 17 53  1  0  0  0  0
 17 54  1  0  0  0  0
 17 55  1  0  0  0  0
 18 56  1  0  0  0  0
 18 57  1  0  0  0  0
 18 58  1  0  0  0  0
 19 21  2  0  0  0  0
 19 59  1  0  0  0  0
 20 21  1  0  0  0  0
 20 60  1  0  0  0  0
 22 24  1  0  0  0  0
 22 26  1  0  0  0  0
 22 63  1  0  0  0  0
 22 64  1  0  0  0  0
 23 25  1  0  0  0  0
 23 27  1  0  0  0  0
 23 65  1  0  0  0  0
 23 66  1  0  0  0  0
 24 29  1  0  0  0  0
 24 67  1  0  0  0  0
 24 68  1  0  0  0  0
 25 30  1  0  0  0  0
 25 69  1  0  0  0  0
 25 70  1  0  0  0  0
 26 31  1  0  0  0  0
 26 71  1  0  0  0  0
 26 72  1  0  0  0  0
 27 32  1  0  0  0  0
 27 73  1  0  0  0  0
 27 74  1  0  0  0  0
 29 33  1  0  0  0  0
 29 75  1  0  0  0  0
 29 76  1  0  0  0  0
 30 34  1  0  0  0  0
 30 77  1  0  0  0  0
 30 78  1  0  0  0  0
 31 35  1  0  0  0  0
 31 79  1  0  0  0  0
 31 80  1  0  0  0  0
 32 36  1  0  0  0  0
 32 81  1  0  0  0  0
 32 82  1  0  0  0  0
 33 39  1  0  0  0  0
 33 83  1  0  0  0  0
 33 84  1  0  0  0  0
 34 40  1  0  0  0  0
 34 85  1  0  0  0  0
 34 86  1  0  0  0  0
 35 87  1  0  0  0  0
 35 88  1  0  0  0  0
 36 89  1  0  0  0  0
 36 90  1  0  0  0  0
 39 91  1  0  0  0  0
 39 92  1  0  0  0  0
 39 93  1  0  0  0  0
 40 94  1  0  0  0  0
 40 95  1  0  0  0  0
 40 96  1  0  0  0  0
M  END
> <PUBCHEM_COMPOUND_CID>
70431

> <PUBCHEM_COMPOUND_CANONICALIZED>
1

> <PUBCHEM_CACTVS_COMPLEXITY>
603

> <PUBCHEM_CACTVS_HBOND_ACCEPTOR>
7

> <PUBCHEM_CACTVS_HBOND_DONOR>
2

> <PUBCHEM_CACTVS_ROTATABLE_BOND>
20

> <PUBCHEM_CACTVS_SUBSKEYS>
AAADcfB/oABgAAAAAAAAAAAAAAAAAAAAAAA8QAAAAAAAAAABwAAAHgQQCAAADgyF2ACz1obIEgigAiRCZACCUAlhIpABiAAEbIiILiLimZOEcAhs0BNI2CewwOAPgEACQAAIAAAAgASAABAAAAAAAAAAAA==

> <PUBCHEM_IUPAC_OPENEYE_NAME>
4-[[4,6-bis(octylsulfanyl)-1,3,5-triazin-2-yl]amino]-2,6-ditert-butyl-phenol

> <PUBCHEM_IUPAC_CAS_NAME>
4-[[4,6-bis(octylthio)-1,3,5-triazin-2-yl]amino]-2,6-ditert-butylphenol

> <PUBCHEM_IUPAC_NAME_MARKUP>
4-[[4,6-bis(octylsulfanyl)-1,3,5-triazin-2-yl]amino]-2,6-di<I>tert</I>-butylphenol

> <PUBCHEM_IUPAC_NAME>
4-[[4,6-bis(octylsulfanyl)-1,3,5-triazin-2-yl]amino]-2,6-ditert-butylphenol

> <PUBCHEM_IUPAC_SYSTEMATIC_NAME>
4-[[4,6-bis(octylsulfanyl)-1,3,5-triazin-2-yl]amino]-2,6-ditert-butyl-phenol

> <PUBCHEM_IUPAC_TRADITIONAL_NAME>
4-[[4,6-bis(octylthio)-s-triazin-2-yl]amino]-2,6-ditert-butyl-phenol

> <PUBCHEM_IUPAC_INCHI>
InChI=1S/C33H56N4OS2/c1-9-11-13-15-17-19-21-39-30-35-29(36-31(37-30)40-22-20-18-16-14-12-10-2)34-25-23-26(32(3,4)5)28(38)27(24-25)33(6,7)8/h23-24,38H,9-22H2,1-8H3,(H,34,35,36,37)

> <PUBCHEM_IUPAC_INCHIKEY>
QRLSTWVLSWCGBT-UHFFFAOYSA-N

> <PUBCHEM_XLOGP3_AA>
13.4

> <PUBCHEM_EXACT_MASS>
588.38955477

> <PUBCHEM_MOLECULAR_FORMULA>
C33H56N4OS2

> <PUBCHEM_MOLECULAR_WEIGHT>
589.0

> <PUBCHEM_SMILES>
CCCCCCCCSC1=NC(=NC(=N1)NC2=CC(=C(C(=C2)C(C)(C)C)O)C(C)(C)C)SCCCCCCCC

> <PUBCHEM_OPENEYE_CAN_SMILES>
CCCCCCCCSC1=NC(=NC(=N1)NC2=CC(=C(C(=C2)C(C)(C)C)O)C(C)(C)C)SCCCCCCCC

> <PUBCHEM_OPENEYE_ISO_SMILES>
CCCCCCCCSC1=NC(=NC(=N1)NC2=CC(=C(C(=C2)C(C)(C)C)O)C(C)(C)C)SCCCCCCCC

> <PUBCHEM_CACTVS_TPSA>
122

> <PUBCHEM_MONOISOTOPIC_WEIGHT>
588.38955477

> <PUBCHEM_TOTAL_CHARGE>
0

> <PUBCHEM_HEAVY_ATOM_COUNT>
40

> <PUBCHEM_ATOM_DEF_STEREO_COUNT>
0

> <PUBCHEM_ATOM_UDEF_STEREO_COUNT>
0

> <PUBCHEM_BOND_DEF_STEREO_COUNT>
0

> <PUBCHEM_BOND_UDEF_STEREO_COUNT>
0

> <PUBCHEM_ISOTOPIC_ATOM_COUNT>
0

> <PUBCHEM_COMPONENT_COUNT>
1

> <PUBCHEM_CACTVS_TAUTO_COUNT>
-1

> <PUBCHEM_COORDINATE_TYPE>
1
5
255

> <PUBCHEM_BONDANNOTATIONS>
10  12  8
10  19  8
11  12  8
11  20  8
19  21  8
20  21  8
5  28  8
5  38  8
6  28  8
6  37  8
7  37  8
7  38  8

$$$$
