70678412
  -OEChem-03212516002D

 37 40  0     0  0  0  0  0  0999 V2000
    6.0682   -1.5670    0.0000 N   0  0  0  0  0  0  0  0  0  0  0  0
    6.9343   -0.0670    0.0000 N   0  0  0  0  0  0  0  0  0  0  0  0
    6.0682    1.4330    0.0000 N   0  0  0  0  0  0  0  0  0  0  0  0
    2.5381    1.4572    0.0000 N   0  0  0  0  0  0  0  0  0  0  0  0
    6.9343   -2.0670    0.0000 C   0  0  0  0  0  0  0  0  0  0  0  0
    7.4343   -2.9330    0.0000 C   0  0  0  0  0  0  0  0  0  0  0  0
    7.9343   -2.0670    0.0000 C   0  0  0  0  0  0  0  0  0  0  0  0
    6.0682   -0.5670    0.0000 C   0  0  0  0  0  0  0  0  0  0  0  0
    5.2022   -0.0670    0.0000 C   0  0  0  0  0  0  0  0  0  0  0  0
    5.2022    0.9330    0.0000 C   0  0  0  0  0  0  0  0  0  0  0  0
    4.3083   -0.6016    0.0000 C   0  0  0  0  0  0  0  0  0  0  0  0
    6.9343    0.9330    0.0000 C   0  0  0  0  0  0  0  0  0  0  0  0
    4.3083    1.4677    0.0000 C   0  0  0  0  0  0  0  0  0  0  0  0
    3.4022   -0.0878    0.0000 C   0  0  0  0  0  0  0  0  0  0  0  0
    3.4022    0.9538    0.0000 C   0  0  0  0  0  0  0  0  0  0  0  0
    7.8003    1.4330    0.0000 C   0  0  0  0  0  0  0  0  0  0  0  0
    7.8003    2.4330    0.0000 C   0  0  0  0  0  0  0  0  0  0  0  0
    8.6663    0.9330    0.0000 C   0  0  0  0  0  0  0  0  0  0  0  0
    8.6663    2.9330    0.0000 C   0  0  0  0  0  0  0  0  0  0  0  0
    9.5323    1.4330    0.0000 C   0  0  0  0  0  0  0  0  0  0  0  0
    9.5323    2.4330    0.0000 C   0  0  0  0  0  0  0  0  0  0  0  0
    7.0948   -1.4681    0.0000 H   0  0  0  0  0  0  0  0  0  0  0  0
    6.9593   -3.3315    0.0000 H   0  0  0  0  0  0  0  0  0  0  0  0
    7.9092   -3.3315    0.0000 H   0  0  0  0  0  0  0  0  0  0  0  0
    8.5169   -2.2790    0.0000 H   0  0  0  0  0  0  0  0  0  0  0  0
    8.0419   -1.4564    0.0000 H   0  0  0  0  0  0  0  0  0  0  0  0
    5.5313   -1.8770    0.0000 H   0  0  0  0  0  0  0  0  0  0  0  0
    4.3154   -1.2216    0.0000 H   0  0  0  0  0  0  0  0  0  0  0  0
    4.3154    2.0876    0.0000 H   0  0  0  0  0  0  0  0  0  0  0  0
    2.8665   -0.3999    0.0000 H   0  0  0  0  0  0  0  0  0  0  0  0
    7.2634    2.7430    0.0000 H   0  0  0  0  0  0  0  0  0  0  0  0
    8.6663    0.3130    0.0000 H   0  0  0  0  0  0  0  0  0  0  0  0
    2.0000    1.1492    0.0000 H   0  0  0  0  0  0  0  0  0  0  0  0
    2.5405    2.0772    0.0000 H   0  0  0  0  0  0  0  0  0  0  0  0
    8.6663    3.5530    0.0000 H   0  0  0  0  0  0  0  0  0  0  0  0
   10.0693    1.1230    0.0000 H   0  0  0  0  0  0  0  0  0  0  0  0
   10.0693    2.7430    0.0000 H   0  0  0  0  0  0  0  0  0  0  0  0
  1  5  1  0  0  0  0
  1  8  1  0  0  0  0
  1 27  1  0  0  0  0
  2  8  2  0  0  0  0
  2 12  1  0  0  0  0
  3 10  1  0  0  0  0
  3 12  2  0  0  0  0
  4 15  1  0  0  0  0
  4 33  1  0  0  0  0
  4 34  1  0  0  0  0
  5  6  1  0  0  0  0
  5  7  1  0  0  0  0
  5 22  1  0  0  0  0
  6  7  1  0  0  0  0
  6 23  1  0  0  0  0
  6 24  1  0  0  0  0
  7 25  1  0  0  0  0
  7 26  1  0  0  0  0
  8  9  1  0  0  0  0
  9 10  2  0  0  0  0
  9 11  1  0  0  0  0
 10 13  1  0  0  0  0
 11 14  2  0  0  0  0
 11 28  1  0  0  0  0
 12 16  1  0  0  0  0
 13 15  2  0  0  0  0
 13 29  1  0  0  0  0
 14 15  1  0  0  0  0
 14 30  1  0  0  0  0
 16 17  2  0  0  0  0
 16 18  1  0  0  0  0
 17 19  1  0  0  0  0
 17 31  1  0  0  0  0
 18 20  2  0  0  0  0
 18 32  1  0  0  0  0
 19 21  2  0  0  0  0
 19 35  1  0  0  0  0
 20 21  1  0  0  0  0
 20 36  1  0  0  0  0
 21 37  1  0  0  0  0
M  END
> <PUBCHEM_COMPOUND_CID>
70678412

> <PUBCHEM_COMPOUND_CANONICALIZED>
1

> <PUBCHEM_CACTVS_COMPLEXITY>
351

> <PUBCHEM_CACTVS_HBOND_ACCEPTOR>
4

> <PUBCHEM_CACTVS_HBOND_DONOR>
2

> <PUBCHEM_CACTVS_ROTATABLE_BOND>
3

> <PUBCHEM_CACTVS_SUBSKEYS>
AAADceB7gAAAAAAAAAAAAAAAGAAAAAAAAAA8YIAAAAAAAACx9AAAHAAQAAAADCjBHwQx8PbIEACgAyZiZACCgCkhAqAJmKA4ZJiIKKLA2dGEJAhokALIyCcQgAAOCAAAAAQCAAAQAAAACAQAAAAAAAAAAA==

> <PUBCHEM_IUPAC_OPENEYE_NAME>
N4-cyclopropyl-2-phenyl-quinazoline-4,7-diamine

> <PUBCHEM_IUPAC_CAS_NAME>
N4-cyclopropyl-2-phenylquinazoline-4,7-diamine

> <PUBCHEM_IUPAC_NAME_MARKUP>
4-<I>N</I>-cyclopropyl-2-phenylquinazoline-4,7-diamine

> <PUBCHEM_IUPAC_NAME>
4-N-cyclopropyl-2-phenylquinazoline-4,7-diamine

> <PUBCHEM_IUPAC_SYSTEMATIC_NAME>
N4-cyclopropyl-2-phenyl-quinazoline-4,7-diamine

> <PUBCHEM_IUPAC_TRADITIONAL_NAME>
(7-amino-2-phenyl-quinazolin-4-yl)-cyclopropyl-amine

> <PUBCHEM_IUPAC_INCHI>
InChI=1S/C17H16N4/c18-12-6-9-14-15(10-12)20-16(11-4-2-1-3-5-11)21-17(14)19-13-7-8-13/h1-6,9-10,13H,7-8,18H2,(H,19,20,21)

> <PUBCHEM_IUPAC_INCHIKEY>
WCANXWUISJCJOB-UHFFFAOYSA-N

> <PUBCHEM_XLOGP3_AA>
3.4

> <PUBCHEM_EXACT_MASS>
276.137496527

> <PUBCHEM_MOLECULAR_FORMULA>
C17H16N4

> <PUBCHEM_MOLECULAR_WEIGHT>
276.34

> <PUBCHEM_SMILES>
C1CC1NC2=NC(=NC3=C2C=CC(=C3)N)C4=CC=CC=C4

> <PUBCHEM_OPENEYE_CAN_SMILES>
C1CC1NC2=NC(=NC3=C2C=CC(=C3)N)C4=CC=CC=C4

> <PUBCHEM_OPENEYE_ISO_SMILES>
C1CC1NC2=NC(=NC3=C2C=CC(=C3)N)C4=CC=CC=C4

> <PUBCHEM_CACTVS_TPSA>
63.8

> <PUBCHEM_MONOISOTOPIC_WEIGHT>
276.137496527

> <PUBCHEM_TOTAL_CHARGE>
0

> <PUBCHEM_HEAVY_ATOM_COUNT>
21

> <PUBCHEM_ATOM_DEF_STEREO_COUNT>
0

> <PUBCHEM_ATOM_UDEF_STEREO_COUNT>
0

> <PUBCHEM_BOND_DEF_STEREO_COUNT>
0

> <PUBCHEM_BOND_UDEF_STEREO_COUNT>
0

> <PUBCHEM_ISOTOPIC_ATOM_COUNT>
0

> <PUBCHEM_COMPONENT_COUNT>
1

> <PUBCHEM_CACTVS_TAUTO_COUNT>
-1

> <PUBCHEM_COORDINATE_TYPE>
1
5
255

> <PUBCHEM_BONDANNOTATIONS>
10  13  8
11  14  8
13  15  8
14  15  8
16  17  8
16  18  8
17  19  8
18  20  8
19  21  8
2  12  8
2  8  8
20  21  8
3  10  8
3  12  8
8  9  8
9  10  8
9  11  8

$$$$
