71311548
  -OEChem-04042512302D

 36 32  0     1  0  0  0  0  0999 V2000
    2.0000   -0.1550    0.0000 Na  0  3  0  0  0  0  0  0  0  0  0  0
   11.5263    0.3450    0.0000 Na  0  3  0  0  0  0  0  0  0  0  0  0
   10.6603   -3.1550    0.0000 Na  0  3  0  0  0  0  0  0  0  0  0  0
    2.8660    0.3450    0.0000 O   0  5  0  0  0  0  0  0  0  0  0  0
    3.7320   -1.1550    0.0000 O   0  0  0  0  0  0  0  0  0  0  0  0
   10.6603   -0.1550    0.0000 O   0  5  0  0  0  0  0  0  0  0  0  0
    9.7942    1.3450    0.0000 O   0  0  0  0  0  0  0  0  0  0  0  0
    3.7320    2.8450    0.0000 O   0  0  0  0  0  0  0  0  0  0  0  0
    2.8660    1.3450    0.0000 O   0  0  0  0  0  0  0  0  0  0  0  0
    9.7942   -2.6550    0.0000 O   0  5  0  0  0  0  0  0  0  0  0  0
   10.6603   -1.1550    0.0000 O   0  0  0  0  0  0  0  0  0  0  0  0
    5.4641   -0.1550    0.0000 N   0  0  0  0  0  0  0  0  0  0  0  0
    8.0622    0.3450    0.0000 N   0  0  0  0  0  0  0  0  0  0  0  0
    6.3301    0.3450    0.0000 C   0  0  0  0  0  0  0  0  0  0  0  0
    7.1962   -0.1550    0.0000 C   0  0  0  0  0  0  0  0  0  0  0  0
    4.5981    0.3450    0.0000 C   0  0  1  0  0  0  0  0  0  0  0  0
    8.9282   -0.1550    0.0000 C   0  0  1  0  0  0  0  0  0  0  0  0
    4.5981    1.3450    0.0000 C   0  0  0  0  0  0  0  0  0  0  0  0
    8.9282   -1.1550    0.0000 C   0  0  0  0  0  0  0  0  0  0  0  0
    3.7320   -0.1550    0.0000 C   0  0  0  0  0  0  0  0  0  0  0  0
    9.7942    0.3450    0.0000 C   0  0  0  0  0  0  0  0  0  0  0  0
    3.7320    1.8450    0.0000 C   0  0  0  0  0  0  0  0  0  0  0  0
    9.7942   -1.6550    0.0000 C   0  0  0  0  0  0  0  0  0  0  0  0
    6.7287    0.8199    0.0000 H   0  0  0  0  0  0  0  0  0  0  0  0
    5.9316    0.8199    0.0000 H   0  0  0  0  0  0  0  0  0  0  0  0
    6.7976   -0.6299    0.0000 H   0  0  0  0  0  0  0  0  0  0  0  0
    7.5947   -0.6299    0.0000 H   0  0  0  0  0  0  0  0  0  0  0  0
    4.5981   -0.2750    0.0000 H   0  0  0  0  0  0  0  0  0  0  0  0
    8.9282    0.4650    0.0000 H   0  0  0  0  0  0  0  0  0  0  0  0
    5.4641   -0.7750    0.0000 H   0  0  0  0  0  0  0  0  0  0  0  0
    8.0622    0.9650    0.0000 H   0  0  0  0  0  0  0  0  0  0  0  0
    5.2087    1.2373    0.0000 H   0  0  0  0  0  0  0  0  0  0  0  0
    4.8101    1.9276    0.0000 H   0  0  0  0  0  0  0  0  0  0  0  0
    8.3176   -1.0473    0.0000 H   0  0  0  0  0  0  0  0  0  0  0  0
    8.7162   -1.7376    0.0000 H   0  0  0  0  0  0  0  0  0  0  0  0
    3.1951    3.1550    0.0000 H   0  0  0  0  0  0  0  0  0  0  0  0
  4 20  1  0  0  0  0
  5 20  2  0  0  0  0
  6 21  1  0  0  0  0
  7 21  2  0  0  0  0
  8 22  1  0  0  0  0
  8 36  1  0  0  0  0
  9 22  2  0  0  0  0
 10 23  1  0  0  0  0
 11 23  2  0  0  0  0
 12 14  1  0  0  0  0
 16 12  1  6  0  0  0
 12 30  1  0  0  0  0
 13 15  1  0  0  0  0
 17 13  1  6  0  0  0
 13 31  1  0  0  0  0
 14 15  1  0  0  0  0
 14 24  1  0  0  0  0
 14 25  1  0  0  0  0
 15 26  1  0  0  0  0
 15 27  1  0  0  0  0
 16 18  1  0  0  0  0
 16 20  1  0  0  0  0
 16 28  1  0  0  0  0
 17 19  1  0  0  0  0
 17 21  1  0  0  0  0
 17 29  1  0  0  0  0
 18 22  1  0  0  0  0
 18 32  1  0  0  0  0
 18 33  1  0  0  0  0
 19 23  1  0  0  0  0
 19 34  1  0  0  0  0
 19 35  1  0  0  0  0
M  CHG  6   1   1   2   1   3   1   4  -1   6  -1  10  -1
M  END
> <PUBCHEM_COMPOUND_CID>
71311548

> <PUBCHEM_COMPOUND_CANONICALIZED>
1

> <PUBCHEM_CACTVS_COMPLEXITY>
367

> <PUBCHEM_CACTVS_HBOND_ACCEPTOR>
10

> <PUBCHEM_CACTVS_HBOND_DONOR>
3

> <PUBCHEM_CACTVS_ROTATABLE_BOND>
8

> <PUBCHEM_CACTVS_SUBSKEYS>
AAADccBzPDAAAAAAAAAAAAAAAAAAAAAAAAAAAAAAAAAAAAAAAAAAHgAQCAAACCjBgAQACALAAgAIAACQCAAAAAAAAAAAAIGIAAACQBgAACAUQAAGEACQAABDAAAAAAAAAAAAAAAAAAAAAAAAAAAAAAAAAA==

> <PUBCHEM_IUPAC_OPENEYE_NAME>
trisodium;(2S)-2-[2-[[(1S)-2-carboxy-1-carboxylato-ethyl]amino]ethylamino]butanedioate

> <PUBCHEM_IUPAC_CAS_NAME>
trisodium;(2S)-2-[2-[[(1S)-2-carboxy-1-carboxylatoethyl]amino]ethylamino]butanedioate

> <PUBCHEM_IUPAC_NAME_MARKUP>
trisodium;(2<I>S</I>)-2-[2-[[(1<I>S</I>)-2-carboxy-1-carboxylatoethyl]amino]ethylamino]butanedioate

> <PUBCHEM_IUPAC_NAME>
trisodium;(2S)-2-[2-[[(1S)-2-carboxy-1-carboxylatoethyl]amino]ethylamino]butanedioate

> <PUBCHEM_IUPAC_SYSTEMATIC_NAME>
trisodium;(2S)-2-[2-[[(2S)-1-oxidanidyl-4-oxidanyl-1,4-bis(oxidanylidene)butan-2-yl]amino]ethylamino]butanedioate

> <PUBCHEM_IUPAC_TRADITIONAL_NAME>
trisodium;(2S)-2-[2-[[(1S)-2-carboxy-1-carboxylato-ethyl]amino]ethylamino]succinate

> <PUBCHEM_IUPAC_INCHI>
InChI=1S/C10H16N2O8.3Na/c13-7(14)3-5(9(17)18)11-1-2-12-6(10(19)20)4-8(15)16;;;/h5-6,11-12H,1-4H2,(H,13,14)(H,15,16)(H,17,18)(H,19,20);;;/q;3*+1/p-3/t5-,6-;;;/m0.../s1

> <PUBCHEM_IUPAC_INCHIKEY>
QEHXDDFROMGLSP-VDBFCSKJSA-K

> <PUBCHEM_EXACT_MASS>
358.03649822

> <PUBCHEM_MOLECULAR_FORMULA>
C10H13N2Na3O8

> <PUBCHEM_MOLECULAR_WEIGHT>
358.19

> <PUBCHEM_SMILES>
C(CN[C@@H](CC(=O)[O-])C(=O)[O-])N[C@@H](CC(=O)O)C(=O)[O-].[Na+].[Na+].[Na+]

> <PUBCHEM_OPENEYE_CAN_SMILES>
C(CNC(CC(=O)[O-])C(=O)[O-])NC(CC(=O)O)C(=O)[O-].[Na+].[Na+].[Na+]

> <PUBCHEM_OPENEYE_ISO_SMILES>
C(CN[C@@H](CC(=O)[O-])C(=O)[O-])N[C@@H](CC(=O)O)C(=O)[O-].[Na+].[Na+].[Na+]

> <PUBCHEM_CACTVS_TPSA>
182

> <PUBCHEM_MONOISOTOPIC_WEIGHT>
358.03649822

> <PUBCHEM_TOTAL_CHARGE>
0

> <PUBCHEM_HEAVY_ATOM_COUNT>
23

> <PUBCHEM_ATOM_DEF_STEREO_COUNT>
2

> <PUBCHEM_ATOM_UDEF_STEREO_COUNT>
0

> <PUBCHEM_BOND_DEF_STEREO_COUNT>
0

> <PUBCHEM_BOND_UDEF_STEREO_COUNT>
0

> <PUBCHEM_ISOTOPIC_ATOM_COUNT>
0

> <PUBCHEM_COMPONENT_COUNT>
4

> <PUBCHEM_CACTVS_TAUTO_COUNT>
-1

> <PUBCHEM_COORDINATE_TYPE>
1
5
255

> <PUBCHEM_BONDANNOTATIONS>
16  12  6
17  13  6

$$$$
