71587657
  -OEChem-04042512272D

 12  9  0     1  0  0  0  0  0999 V2000
    5.4641    0.4050    0.0000 S   0  0  3  0  0  0  0  0  0  0  0  0
    7.1962    0.4050    0.0000 Na  0  3  0  0  0  0  0  0  0  0  0  0
    2.0000    0.4050    0.0000 Na  0  3  0  0  0  0  0  0  0  0  0  0
    4.5981   -1.0950    0.0000 O   0  0  0  0  0  0  0  0  0  0  0  0
    6.3301   -0.0950    0.0000 O   0  5  0  0  0  0  0  0  0  0  0  0
    5.4641    1.4050    0.0000 O   0  0  0  0  0  0  0  0  0  0  0  0
    2.8660   -0.0950    0.0000 O   0  5  0  0  0  0  0  0  0  0  0  0
    3.7320    1.4050    0.0000 O   0  0  0  0  0  0  0  0  0  0  0  0
    4.5981   -0.0950    0.0000 C   0  0  3  0  0  0  0  0  0  0  0  0
    3.7320    0.4050    0.0000 C   0  0  0  0  0  0  0  0  0  0  0  0
    4.0611   -0.4050    0.0000 H   0  0  0  0  0  0  0  0  0  0  0  0
    4.0611   -1.4050    0.0000 H   0  0  0  0  0  0  0  0  0  0  0  0
  1  5  1  0  0  0  0
  1  6  2  0  0  0  0
  1  9  1  0  0  0  0
  4  9  1  0  0  0  0
  4 12  1  0  0  0  0
  7 10  1  0  0  0  0
  8 10  2  0  0  0  0
  9 10  1  0  0  0  0
  9 11  1  0  0  0  0
M  CHG  4   2   1   3   1   5  -1   7  -1
M  END
> <PUBCHEM_COMPOUND_CID>
71587657

> <PUBCHEM_COMPOUND_CANONICALIZED>
1

> <PUBCHEM_CACTVS_COMPLEXITY>
109

> <PUBCHEM_CACTVS_HBOND_ACCEPTOR>
6

> <PUBCHEM_CACTVS_HBOND_DONOR>
1

> <PUBCHEM_CACTVS_ROTATABLE_BOND>
0

> <PUBCHEM_CACTVS_SUBSKEYS>
AAADcQBAODBAAAAAAAAAAAAAAAAAAAAAAAAAAAAAAAAAAAAAAAAAGgQACAAAAACkwAKACAAAAgIIAACQCGJAAAAAAAAAAABAAAABEAAAAAAAAAAAAAABAAAAAAAAAAAAAAAAAAAAAAAAAAAAAAAAAAAAAA==

> <PUBCHEM_IUPAC_OPENEYE_NAME>
disodium;2-hydroxy-2-sulfinato-acetate

> <PUBCHEM_IUPAC_CAS_NAME>
disodium;2-hydroxy-2-sulfinatoacetate

> <PUBCHEM_IUPAC_NAME_MARKUP>
disodium;2-hydroxy-2-sulfinatoacetate

> <PUBCHEM_IUPAC_NAME>
disodium;2-hydroxy-2-sulfinatoacetate

> <PUBCHEM_IUPAC_SYSTEMATIC_NAME>
disodium;2-oxidanyl-2-sulfinato-ethanoate

> <PUBCHEM_IUPAC_TRADITIONAL_NAME>
disodium;2-hydroxy-2-sulfinato-acetate

> <PUBCHEM_IUPAC_INCHI>
InChI=1S/C2H4O5S.2Na/c3-1(4)2(5)8(6)7;;/h2,5H,(H,3,4)(H,6,7);;/q;2*+1/p-2

> <PUBCHEM_IUPAC_INCHIKEY>
KLSBASGQHCAVHQ-UHFFFAOYSA-L

> <PUBCHEM_EXACT_MASS>
183.94183290

> <PUBCHEM_MOLECULAR_FORMULA>
C2H2Na2O5S

> <PUBCHEM_MOLECULAR_WEIGHT>
184.08

> <PUBCHEM_SMILES>
C(C(=O)[O-])(O)S(=O)[O-].[Na+].[Na+]

> <PUBCHEM_OPENEYE_CAN_SMILES>
C(C(=O)[O-])(O)S(=O)[O-].[Na+].[Na+]

> <PUBCHEM_OPENEYE_ISO_SMILES>
C(C(=O)[O-])(O)S(=O)[O-].[Na+].[Na+]

> <PUBCHEM_CACTVS_TPSA>
120

> <PUBCHEM_MONOISOTOPIC_WEIGHT>
183.94183290

> <PUBCHEM_TOTAL_CHARGE>
0

> <PUBCHEM_HEAVY_ATOM_COUNT>
10

> <PUBCHEM_ATOM_DEF_STEREO_COUNT>
0

> <PUBCHEM_ATOM_UDEF_STEREO_COUNT>
1

> <PUBCHEM_BOND_DEF_STEREO_COUNT>
0

> <PUBCHEM_BOND_UDEF_STEREO_COUNT>
0

> <PUBCHEM_ISOTOPIC_ATOM_COUNT>
0

> <PUBCHEM_COMPONENT_COUNT>
3

> <PUBCHEM_CACTVS_TAUTO_COUNT>
-1

> <PUBCHEM_COORDINATE_TYPE>
1
5
255

> <PUBCHEM_BONDANNOTATIONS>
9  4  3

$$$$
