72941626
  -OEChem-04042512222D

 51 48  0     0  0  0  0  0  0999 V2000
    8.9282    0.0600    0.0000 Ca  0  2  0  0  0  0  0  0  0  0  0  0
    7.1962    0.0600    0.0000 S   0  0  0  0  0  0  0  0  0  0  0  0
   10.6603    0.0600    0.0000 S   0  0  0  0  0  0  0  0  0  0  0  0
    8.0622   -0.4400    0.0000 O   0  5  0  0  0  0  0  0  0  0  0  0
    9.7942   -0.4400    0.0000 O   0  5  0  0  0  0  0  0  0  0  0  0
    7.6962    0.9260    0.0000 O   0  0  0  0  0  0  0  0  0  0  0  0
    6.6962   -0.8060    0.0000 O   0  0  0  0  0  0  0  0  0  0  0  0
   11.1603   -0.8060    0.0000 O   0  0  0  0  0  0  0  0  0  0  0  0
   10.1603    0.9260    0.0000 O   0  0  0  0  0  0  0  0  0  0  0  0
    3.7320    1.0600    0.0000 O   0  0  0  0  0  0  0  0  0  0  0  0
   14.1244    1.0600    0.0000 O   0  0  0  0  0  0  0  0  0  0  0  0
    4.5981   -0.4400    0.0000 N   0  0  0  0  0  0  0  0  0  0  0  0
   13.2583   -0.4400    0.0000 N   0  0  0  0  0  0  0  0  0  0  0  0
    5.4641    0.0600    0.0000 C   0  0  0  0  0  0  0  0  0  0  0  0
   12.3923    0.0600    0.0000 C   0  0  0  0  0  0  0  0  0  0  0  0
    6.3301    0.5600    0.0000 C   0  0  0  0  0  0  0  0  0  0  0  0
   11.5263    0.5600    0.0000 C   0  0  0  0  0  0  0  0  0  0  0  0
    4.9641    0.9260    0.0000 C   0  0  0  0  0  0  0  0  0  0  0  0
    5.9641   -0.8060    0.0000 C   0  0  0  0  0  0  0  0  0  0  0  0
   12.8923    0.9260    0.0000 C   0  0  0  0  0  0  0  0  0  0  0  0
   11.8923   -0.8060    0.0000 C   0  0  0  0  0  0  0  0  0  0  0  0
    3.7320    0.0600    0.0000 C   0  0  0  0  0  0  0  0  0  0  0  0
   14.1244    0.0600    0.0000 C   0  0  0  0  0  0  0  0  0  0  0  0
    2.8660   -0.4400    0.0000 C   0  0  0  0  0  0  0  0  0  0  0  0
   14.9904   -0.4400    0.0000 C   0  0  0  0  0  0  0  0  0  0  0  0
    2.0000    0.0600    0.0000 C   0  0  0  0  0  0  0  0  0  0  0  0
   15.8564    0.0600    0.0000 C   0  0  0  0  0  0  0  0  0  0  0  0
    6.7287    1.0350    0.0000 H   0  0  0  0  0  0  0  0  0  0  0  0
    5.9316    1.0350    0.0000 H   0  0  0  0  0  0  0  0  0  0  0  0
   11.9248    1.0350    0.0000 H   0  0  0  0  0  0  0  0  0  0  0  0
   11.1278    1.0350    0.0000 H   0  0  0  0  0  0  0  0  0  0  0  0
    5.5010    1.2360    0.0000 H   0  0  0  0  0  0  0  0  0  0  0  0
    4.6541    1.4630    0.0000 H   0  0  0  0  0  0  0  0  0  0  0  0
    4.4272    0.6160    0.0000 H   0  0  0  0  0  0  0  0  0  0  0  0
    5.4272   -1.1160    0.0000 H   0  0  0  0  0  0  0  0  0  0  0  0
    6.2741   -1.3430    0.0000 H   0  0  0  0  0  0  0  0  0  0  0  0
    6.5010   -0.4960    0.0000 H   0  0  0  0  0  0  0  0  0  0  0  0
   13.4292    0.6160    0.0000 H   0  0  0  0  0  0  0  0  0  0  0  0
   13.2023    1.4630    0.0000 H   0  0  0  0  0  0  0  0  0  0  0  0
   12.3554    1.2360    0.0000 H   0  0  0  0  0  0  0  0  0  0  0  0
   11.3554   -0.4960    0.0000 H   0  0  0  0  0  0  0  0  0  0  0  0
   11.5823   -1.3430    0.0000 H   0  0  0  0  0  0  0  0  0  0  0  0
   12.4292   -1.1160    0.0000 H   0  0  0  0  0  0  0  0  0  0  0  0
    4.5981   -1.0600    0.0000 H   0  0  0  0  0  0  0  0  0  0  0  0
   13.2583   -1.0600    0.0000 H   0  0  0  0  0  0  0  0  0  0  0  0
    2.8660   -1.0600    0.0000 H   0  0  0  0  0  0  0  0  0  0  0  0
   14.9904   -1.0600    0.0000 H   0  0  0  0  0  0  0  0  0  0  0  0
    2.0000    0.6800    0.0000 H   0  0  0  0  0  0  0  0  0  0  0  0
    1.4631   -0.2500    0.0000 H   0  0  0  0  0  0  0  0  0  0  0  0
   16.3933   -0.2500    0.0000 H   0  0  0  0  0  0  0  0  0  0  0  0
   15.8564    0.6800    0.0000 H   0  0  0  0  0  0  0  0  0  0  0  0
  2  4  1  0  0  0  0
  2  6  2  0  0  0  0
  2  7  2  0  0  0  0
  2 16  1  0  0  0  0
  3  5  1  0  0  0  0
  3  8  2  0  0  0  0
  3  9  2  0  0  0  0
  3 17  1  0  0  0  0
 10 22  2  0  0  0  0
 11 23  2  0  0  0  0
 12 14  1  0  0  0  0
 12 22  1  0  0  0  0
 12 44  1  0  0  0  0
 13 15  1  0  0  0  0
 13 23  1  0  0  0  0
 13 45  1  0  0  0  0
 14 16  1  0  0  0  0
 14 18  1  0  0  0  0
 14 19  1  0  0  0  0
 15 17  1  0  0  0  0
 15 20  1  0  0  0  0
 15 21  1  0  0  0  0
 16 28  1  0  0  0  0
 16 29  1  0  0  0  0
 17 30  1  0  0  0  0
 17 31  1  0  0  0  0
 18 32  1  0  0  0  0
 18 33  1  0  0  0  0
 18 34  1  0  0  0  0
 19 35  1  0  0  0  0
 19 36  1  0  0  0  0
 19 37  1  0  0  0  0
 20 38  1  0  0  0  0
 20 39  1  0  0  0  0
 20 40  1  0  0  0  0
 21 41  1  0  0  0  0
 21 42  1  0  0  0  0
 21 43  1  0  0  0  0
 22 24  1  0  0  0  0
 23 25  1  0  0  0  0
 24 26  2  0  0  0  0
 24 46  1  0  0  0  0
 25 27  2  0  0  0  0
 25 47  1  0  0  0  0
 26 48  1  0  0  0  0
 26 49  1  0  0  0  0
 27 50  1  0  0  0  0
 27 51  1  0  0  0  0
M  CHG  3   1   2   4  -1   5  -1
M  END
> <PUBCHEM_COMPOUND_CID>
72941626

> <PUBCHEM_COMPOUND_CANONICALIZED>
1

> <PUBCHEM_CACTVS_COMPLEXITY>
286

> <PUBCHEM_CACTVS_HBOND_ACCEPTOR>
8

> <PUBCHEM_CACTVS_HBOND_DONOR>
2

> <PUBCHEM_CACTVS_ROTATABLE_BOND>
6

> <PUBCHEM_CACTVS_SUBSKEYS>
AAADceBzPABgAAgAAAAAAAAAAAAAAAAAAAAAAAAAAAAAAAAAAAAAHgQQAAAADIiFwACCAALAAAKIACFSEHDAAAAAAAAIAAAAAEAAAAAAAAAAAAAAFACAAIAAAAAAAAAAAAAAAAAAAAAAAAAAAAAAAAAAAA==

> <PUBCHEM_IUPAC_OPENEYE_NAME>
calcium;2-methyl-2-(prop-2-enoylamino)propane-1-sulfonate

> <PUBCHEM_IUPAC_CAS_NAME>
calcium;2-methyl-2-(1-oxoprop-2-enylamino)-1-propanesulfonate

> <PUBCHEM_IUPAC_NAME_MARKUP>
calcium;2-methyl-2-(prop-2-enoylamino)propane-1-sulfonate

> <PUBCHEM_IUPAC_NAME>
calcium;2-methyl-2-(prop-2-enoylamino)propane-1-sulfonate

> <PUBCHEM_IUPAC_SYSTEMATIC_NAME>
calcium;2-methyl-2-(prop-2-enoylamino)propane-1-sulfonate

> <PUBCHEM_IUPAC_TRADITIONAL_NAME>
calcium;2-acrylamido-2-methyl-propane-1-sulfonate

> <PUBCHEM_IUPAC_INCHI>
InChI=1S/2C7H13NO4S.Ca/c2*1-4-6(9)8-7(2,3)5-13(10,11)12;/h2*4H,1,5H2,2-3H3,(H,8,9)(H,10,11,12);/q;;+2/p-2

> <PUBCHEM_IUPAC_INCHIKEY>
BEBLEPZOMMWNIF-UHFFFAOYSA-L

> <PUBCHEM_EXACT_MASS>
452.0599989

> <PUBCHEM_MOLECULAR_FORMULA>
C14H24CaN2O8S2

> <PUBCHEM_MOLECULAR_WEIGHT>
452.6

> <PUBCHEM_SMILES>
CC(C)(CS(=O)(=O)[O-])NC(=O)C=C.CC(C)(CS(=O)(=O)[O-])NC(=O)C=C.[Ca+2]

> <PUBCHEM_OPENEYE_CAN_SMILES>
CC(C)(CS(=O)(=O)[O-])NC(=O)C=C.CC(C)(CS(=O)(=O)[O-])NC(=O)C=C.[Ca+2]

> <PUBCHEM_OPENEYE_ISO_SMILES>
CC(C)(CS(=O)(=O)[O-])NC(=O)C=C.CC(C)(CS(=O)(=O)[O-])NC(=O)C=C.[Ca+2]

> <PUBCHEM_CACTVS_TPSA>
189

> <PUBCHEM_MONOISOTOPIC_WEIGHT>
452.0599989

> <PUBCHEM_TOTAL_CHARGE>
0

> <PUBCHEM_HEAVY_ATOM_COUNT>
27

> <PUBCHEM_ATOM_DEF_STEREO_COUNT>
0

> <PUBCHEM_ATOM_UDEF_STEREO_COUNT>
0

> <PUBCHEM_BOND_DEF_STEREO_COUNT>
0

> <PUBCHEM_BOND_UDEF_STEREO_COUNT>
0

> <PUBCHEM_ISOTOPIC_ATOM_COUNT>
0

> <PUBCHEM_COMPONENT_COUNT>
3

> <PUBCHEM_CACTVS_TAUTO_COUNT>
-1

> <PUBCHEM_COORDINATE_TYPE>
1
5
255

$$$$
