72941604
  -OEChem-04042512302D

 51 54  0     1  0  0  0  0  0999 V2000
    2.0000    2.8845    0.0000 Cl  0  0  0  0  0  0  0  0  0  0  0  0
   12.4525   -2.1497    0.0000 Cl  0  0  0  0  0  0  0  0  0  0  0  0
    5.4641   -0.1155    0.0000 O   0  0  0  0  0  0  0  0  0  0  0  0
    8.0901   -0.6502    0.0000 O   0  0  0  0  0  0  0  0  0  0  0  0
    6.3301    1.3845    0.0000 O   0  0  0  0  0  0  0  0  0  0  0  0
    8.9962    0.9053    0.0000 O   0  0  0  0  0  0  0  0  0  0  0  0
    6.3301   -2.3476    0.0000 O   0  0  0  0  0  0  0  0  0  0  0  0
    4.3301   -2.3476    0.0000 O   0  0  0  0  0  0  0  0  0  0  0  0
    6.3301   -0.6155    0.0000 C   0  0  1  0  0  0  0  0  0  0  0  0
    7.1962   -0.1155    0.0000 C   0  0  1  0  0  0  0  0  0  0  0  0
    7.1962    0.8845    0.0000 C   0  0  2  0  0  0  0  0  0  0  0  0
    5.8301   -1.4815    0.0000 C   0  0  1  0  0  0  0  0  0  0  0  0
    8.0901    1.4192    0.0000 C   0  0  0  0  0  0  0  0  0  0  0  0
    6.8301   -1.4815    0.0000 C   0  0  0  0  0  0  0  0  0  0  0  0
    5.4641    0.8845    0.0000 C   0  0  3  0  0  0  0  0  0  0  0  0
    8.9962   -0.1363    0.0000 C   0  0  3  0  0  0  0  0  0  0  0  0
    4.8301   -1.4815    0.0000 C   0  0  0  0  0  0  0  0  0  0  0  0
    4.5981    1.3845    0.0000 C   0  0  0  0  0  0  0  0  0  0  0  0
    9.8602   -0.6397    0.0000 C   0  0  0  0  0  0  0  0  0  0  0  0
    3.7320    0.8845    0.0000 C   0  0  0  0  0  0  0  0  0  0  0  0
    4.5981    2.3845    0.0000 C   0  0  0  0  0  0  0  0  0  0  0  0
   10.7282   -0.1430    0.0000 C   0  0  0  0  0  0  0  0  0  0  0  0
    9.8564   -1.6396    0.0000 C   0  0  0  0  0  0  0  0  0  0  0  0
    2.8660    1.3845    0.0000 C   0  0  0  0  0  0  0  0  0  0  0  0
    3.7320    2.8845    0.0000 C   0  0  0  0  0  0  0  0  0  0  0  0
   11.5923   -0.6463    0.0000 C   0  0  0  0  0  0  0  0  0  0  0  0
   10.7205   -2.1430    0.0000 C   0  0  0  0  0  0  0  0  0  0  0  0
    2.8660    2.3845    0.0000 C   0  0  0  0  0  0  0  0  0  0  0  0
   11.5884   -1.6463    0.0000 C   0  0  0  0  0  0  0  0  0  0  0  0
    7.1896   -0.9655    0.0000 H   0  0  0  0  0  0  0  0  0  0  0  0
    7.1896    1.7345    0.0000 H   0  0  0  0  0  0  0  0  0  0  0  0
    5.5201   -2.0185    0.0000 H   0  0  0  0  0  0  0  0  0  0  0  0
    8.4837    1.8982    0.0000 H   0  0  0  0  0  0  0  0  0  0  0  0
    7.6855    1.8889    0.0000 H   0  0  0  0  0  0  0  0  0  0  0  0
    6.2932   -1.7915    0.0000 H   0  0  0  0  0  0  0  0  0  0  0  0
    7.1401   -2.0185    0.0000 H   0  0  0  0  0  0  0  0  0  0  0  0
    7.3671   -1.1715    0.0000 H   0  0  0  0  0  0  0  0  0  0  0  0
    5.4641    1.5045    0.0000 H   0  0  0  0  0  0  0  0  0  0  0  0
    8.9926   -0.7563    0.0000 H   0  0  0  0  0  0  0  0  0  0  0  0
    4.9378   -0.8710    0.0000 H   0  0  0  0  0  0  0  0  0  0  0  0
    4.2475   -1.2695    0.0000 H   0  0  0  0  0  0  0  0  0  0  0  0
    6.0201   -2.8845    0.0000 H   0  0  0  0  0  0  0  0  0  0  0  0
    3.7320    0.2645    0.0000 H   0  0  0  0  0  0  0  0  0  0  0  0
    5.1350    2.6945    0.0000 H   0  0  0  0  0  0  0  0  0  0  0  0
    3.7101   -2.3476    0.0000 H   0  0  0  0  0  0  0  0  0  0  0  0
   10.7306    0.4770    0.0000 H   0  0  0  0  0  0  0  0  0  0  0  0
    9.3183   -1.9476    0.0000 H   0  0  0  0  0  0  0  0  0  0  0  0
    2.3291    1.0745    0.0000 H   0  0  0  0  0  0  0  0  0  0  0  0
    3.7320    3.5045    0.0000 H   0  0  0  0  0  0  0  0  0  0  0  0
   12.1304   -0.3384    0.0000 H   0  0  0  0  0  0  0  0  0  0  0  0
   10.7181   -2.7630    0.0000 H   0  0  0  0  0  0  0  0  0  0  0  0
  1 28  1  0  0  0  0
  2 29  1  0  0  0  0
  3  9  1  0  0  0  0
  3 15  1  0  0  0  0
  4 10  1  0  0  0  0
  4 16  1  0  0  0  0
  5 11  1  0  0  0  0
  5 15  1  0  0  0  0
  6 13  1  0  0  0  0
  6 16  1  0  0  0  0
 12  7  1  6  0  0  0
  7 42  1  0  0  0  0
  8 17  1  0  0  0  0
  8 45  1  0  0  0  0
  9 10  1  0  0  0  0
  9 12  1  0  0  0  0
  9 14  1  6  0  0  0
 10 11  1  0  0  0  0
 10 30  1  6  0  0  0
 11 13  1  0  0  0  0
 11 31  1  6  0  0  0
 12 17  1  0  0  0  0
 12 32  1  0  0  0  0
 13 33  1  0  0  0  0
 13 34  1  0  0  0  0
 14 35  1  0  0  0  0
 14 36  1  0  0  0  0
 14 37  1  0  0  0  0
 15 18  1  0  0  0  0
 15 38  1  0  0  0  0
 16 19  1  0  0  0  0
 16 39  1  0  0  0  0
 17 40  1  0  0  0  0
 17 41  1  0  0  0  0
 18 20  2  0  0  0  0
 18 21  1  0  0  0  0
 19 22  2  0  0  0  0
 19 23  1  0  0  0  0
 20 24  1  0  0  0  0
 20 43  1  0  0  0  0
 21 25  2  0  0  0  0
 21 44  1  0  0  0  0
 22 26  1  0  0  0  0
 22 46  1  0  0  0  0
 23 27  2  0  0  0  0
 23 47  1  0  0  0  0
 24 28  2  0  0  0  0
 24 48  1  0  0  0  0
 25 28  1  0  0  0  0
 25 49  1  0  0  0  0
 26 29  2  0  0  0  0
 26 50  1  0  0  0  0
 27 29  1  0  0  0  0
 27 51  1  0  0  0  0
M  END
> <PUBCHEM_COMPOUND_CID>
72941604

> <PUBCHEM_COMPOUND_CANONICALIZED>
1

> <PUBCHEM_CACTVS_COMPLEXITY>
537

> <PUBCHEM_CACTVS_HBOND_ACCEPTOR>
6

> <PUBCHEM_CACTVS_HBOND_DONOR>
2

> <PUBCHEM_CACTVS_ROTATABLE_BOND>
4

> <PUBCHEM_CACTVS_SUBSKEYS>
AAADceB4OAAGAAAAAAAAAAAAAAAAAAAAAAA0aIEAAAAAAACRQAAAGgIACAAADFawmCMyCIAABgCAAiBCAAACAAAgBQAIiAAACogZNiKBMxiicAAlwAEPqAfA4CwOBAAAAAAAAAAIAAAAAAAAAAAAAAAAAA==

> <PUBCHEM_IUPAC_OPENEYE_NAME>
(1R)-1-[(4R,4aR,8aS)-2,6-bis(4-chlorophenyl)-4-methyl-8,8a-dihydro-4aH-[1,3]dioxino[5,4-d][1,3]dioxin-4-yl]ethane-1,2-diol

> <PUBCHEM_IUPAC_CAS_NAME>
(1R)-1-[(4R,4aR,8aS)-2,6-bis(4-chlorophenyl)-4-methyl-8,8a-dihydro-4aH-[1,3]dioxino[5,4-d][1,3]dioxin-4-yl]ethane-1,2-diol

> <PUBCHEM_IUPAC_NAME_MARKUP>
(1<I>R</I>)-1-[(4<I>R</I>,4<I>a</I><I>R</I>,8<I>a</I><I>S</I>)-2,6-bis(4-chlorophenyl)-4-methyl-8,8<I>a</I>-dihydro-4<I>a</I><I>H</I>-[1,3]dioxino[5,4-d][1,3]dioxin-4-yl]ethane-1,2-diol

> <PUBCHEM_IUPAC_NAME>
(1R)-1-[(4R,4aR,8aS)-2,6-bis(4-chlorophenyl)-4-methyl-8,8a-dihydro-4aH-[1,3]dioxino[5,4-d][1,3]dioxin-4-yl]ethane-1,2-diol

> <PUBCHEM_IUPAC_SYSTEMATIC_NAME>
(1R)-1-[(4R,4aR,8aS)-2,6-bis(4-chlorophenyl)-4-methyl-8,8a-dihydro-4aH-[1,3]dioxino[5,4-d][1,3]dioxin-4-yl]ethane-1,2-diol

> <PUBCHEM_IUPAC_TRADITIONAL_NAME>
(1R)-1-[(4R,4aR,8aS)-2,6-bis(4-chlorophenyl)-4-methyl-8,8a-dihydro-4aH-[1,3]dioxino[5,4-d][1,3]dioxin-4-yl]ethane-1,2-diol

> <PUBCHEM_IUPAC_INCHI>
InChI=1S/C21H22Cl2O6/c1-21(17(25)10-24)18-16(27-20(29-21)13-4-8-15(23)9-5-13)11-26-19(28-18)12-2-6-14(22)7-3-12/h2-9,16-20,24-25H,10-11H2,1H3/t16-,17+,18+,19?,20?,21+/m0/s1

> <PUBCHEM_IUPAC_INCHIKEY>
YULFFYZCWUUTNC-YWPNNVDBSA-N

> <PUBCHEM_XLOGP3_AA>
2.8

> <PUBCHEM_EXACT_MASS>
440.0793438

> <PUBCHEM_MOLECULAR_FORMULA>
C21H22Cl2O6

> <PUBCHEM_MOLECULAR_WEIGHT>
441.3

> <PUBCHEM_SMILES>
C[C@]1([C@H]2[C@H](COC(O2)C3=CC=C(C=C3)Cl)OC(O1)C4=CC=C(C=C4)Cl)[C@@H](CO)O

> <PUBCHEM_OPENEYE_CAN_SMILES>
CC1(C2C(COC(O2)C3=CC=C(C=C3)Cl)OC(O1)C4=CC=C(C=C4)Cl)C(CO)O

> <PUBCHEM_OPENEYE_ISO_SMILES>
C[C@]1([C@H]2[C@H](COC(O2)C3=CC=C(C=C3)Cl)OC(O1)C4=CC=C(C=C4)Cl)[C@@H](CO)O

> <PUBCHEM_CACTVS_TPSA>
77.4

> <PUBCHEM_MONOISOTOPIC_WEIGHT>
440.0793438

> <PUBCHEM_TOTAL_CHARGE>
0

> <PUBCHEM_HEAVY_ATOM_COUNT>
29

> <PUBCHEM_ATOM_DEF_STEREO_COUNT>
4

> <PUBCHEM_ATOM_UDEF_STEREO_COUNT>
2

> <PUBCHEM_BOND_DEF_STEREO_COUNT>
0

> <PUBCHEM_BOND_UDEF_STEREO_COUNT>
0

> <PUBCHEM_ISOTOPIC_ATOM_COUNT>
0

> <PUBCHEM_COMPONENT_COUNT>
1

> <PUBCHEM_CACTVS_TAUTO_COUNT>
-1

> <PUBCHEM_COORDINATE_TYPE>
1
5
255

> <PUBCHEM_BONDANNOTATIONS>
10  30  6
11  31  6
15  18  3
16  19  3
18  20  8
18  21  8
19  22  8
19  23  8
20  24  8
21  25  8
22  26  8
23  27  8
24  28  8
25  28  8
26  29  8
27  29  8
12  7  6
9  14  6

$$$$
