72942007
  -OEChem-04042512342D

121125  0     1  0  0  0  0  0999 V2000
    6.9641   -0.5463    0.0000 O   0  0  0  0  0  0  0  0  0  0  0  0
    9.9641   -2.2783    0.0000 O   0  0  0  0  0  0  0  0  0  0  0  0
    6.9641   -4.0104    0.0000 O   0  0  0  0  0  0  0  0  0  0  0  0
    5.8660    2.8197    0.0000 O   0  0  0  0  0  0  0  0  0  0  0  0
    2.0000   -4.1444    0.0000 O   0  0  0  0  0  0  0  0  0  0  0  0
   12.5622   -6.5104    0.0000 O   0  0  0  0  0  0  0  0  0  0  0  0
    5.0492    4.1301    0.0000 O   0  0  0  0  0  0  0  0  0  0  0  0
    8.4641   -1.4123    0.0000 N   0  0  0  0  0  0  0  0  0  0  0  0
    6.9641   -2.2783    0.0000 N   0  0  0  0  0  0  0  0  0  0  0  0
    8.4641   -3.1444    0.0000 N   0  0  0  0  0  0  0  0  0  0  0  0
    7.5981    2.8197    0.0000 N   0  0  0  0  0  0  0  0  0  0  0  0
    3.7320   -5.1444    0.0000 N   0  0  0  0  0  0  0  0  0  0  0  0
   12.5622   -4.5104    0.0000 N   0  0  0  0  0  0  0  0  0  0  0  0
    6.7320    4.3197    0.0000 N   0  0  0  0  0  0  0  0  0  0  0  0
    8.4641    0.3197    0.0000 C   0  0  3  0  0  0  0  0  0  0  0  0
    6.7320    0.3197    0.0000 C   0  0  0  0  0  0  0  0  0  0  0  0
    7.5981   -0.1803    0.0000 C   0  0  0  0  0  0  0  0  0  0  0  0
    5.4641   -3.1444    0.0000 C   0  0  3  0  0  0  0  0  0  0  0  0
    9.9641   -4.0104    0.0000 C   0  0  3  0  0  0  0  0  0  0  0  0
    8.4641    1.3197    0.0000 C   0  0  0  0  0  0  0  0  0  0  0  0
    7.5981    1.8197    0.0000 C   0  0  3  0  0  0  0  0  0  0  0  0
    6.7320    1.3197    0.0000 C   0  0  0  0  0  0  0  0  0  0  0  0
    6.3301   -4.6444    0.0000 C   0  0  0  0  0  0  0  0  0  0  0  0
   10.8301   -2.5104    0.0000 C   0  0  0  0  0  0  0  0  0  0  0  0
    6.3301   -3.6444    0.0000 C   0  0  0  0  0  0  0  0  0  0  0  0
    9.9641   -3.0104    0.0000 C   0  0  0  0  0  0  0  0  0  0  0  0
    8.9641   -0.5463    0.0000 C   0  0  0  0  0  0  0  0  0  0  0  0
    4.5981   -3.6444    0.0000 C   0  0  0  0  0  0  0  0  0  0  0  0
   10.8301   -4.5104    0.0000 C   0  0  0  0  0  0  0  0  0  0  0  0
    5.4641   -5.1444    0.0000 C   0  0  0  0  0  0  0  0  0  0  0  0
   11.6962   -3.0104    0.0000 C   0  0  0  0  0  0  0  0  0  0  0  0
    5.9641   -2.2783    0.0000 C   0  0  0  0  0  0  0  0  0  0  0  0
    8.9641   -4.0104    0.0000 C   0  0  0  0  0  0  0  0  0  0  0  0
    4.5981   -4.6444    0.0000 C   0  0  3  0  0  0  0  0  0  0  0  0
   11.6962   -4.0104    0.0000 C   0  0  3  0  0  0  0  0  0  0  0  0
    9.4641    0.3197    0.0000 C   0  0  0  0  0  0  0  0  0  0  0  0
    6.2320   -0.5463    0.0000 C   0  0  0  0  0  0  0  0  0  0  0  0
    5.7320    0.3197    0.0000 C   0  0  0  0  0  0  0  0  0  0  0  0
    4.9641   -2.2783    0.0000 C   0  0  0  0  0  0  0  0  0  0  0  0
    9.4641   -4.8764    0.0000 C   0  0  0  0  0  0  0  0  0  0  0  0
    6.8301   -5.5104    0.0000 C   0  0  0  0  0  0  0  0  0  0  0  0
    7.3301   -4.6444    0.0000 C   0  0  0  0  0  0  0  0  0  0  0  0
   11.3301   -1.6444    0.0000 C   0  0  0  0  0  0  0  0  0  0  0  0
   10.3301   -1.6444    0.0000 C   0  0  0  0  0  0  0  0  0  0  0  0
    7.4641   -1.4123    0.0000 C   0  0  0  0  0  0  0  0  0  0  0  0
    8.9641   -2.2783    0.0000 C   0  0  0  0  0  0  0  0  0  0  0  0
    7.4641   -3.1444    0.0000 C   0  0  0  0  0  0  0  0  0  0  0  0
    6.7320    3.3197    0.0000 C   0  0  0  0  0  0  0  0  0  0  0  0
    2.8660   -4.6444    0.0000 C   0  0  0  0  0  0  0  0  0  0  0  0
   12.5622   -5.5104    0.0000 C   0  0  0  0  0  0  0  0  0  0  0  0
    7.6330    4.7536    0.0000 C   0  0  0  0  0  0  0  0  0  0  0  0
    5.8311    4.7536    0.0000 C   0  0  0  0  0  0  0  0  0  0  0  0
    7.8555    5.7286    0.0000 C   0  0  0  0  0  0  0  0  0  0  0  0
    5.6086    5.7286    0.0000 C   0  0  0  0  0  0  0  0  0  0  0  0
    7.2320    6.5104    0.0000 C   0  0  0  0  0  0  0  0  0  0  0  0
    6.2320    6.5104    0.0000 C   0  0  0  0  0  0  0  0  0  0  0  0
    7.1996   -0.6552    0.0000 H   0  0  0  0  0  0  0  0  0  0  0  0
    7.9966   -0.6552    0.0000 H   0  0  0  0  0  0  0  0  0  0  0  0
    9.0747    1.2121    0.0000 H   0  0  0  0  0  0  0  0  0  0  0  0
    8.6762    1.9024    0.0000 H   0  0  0  0  0  0  0  0  0  0  0  0
    8.1350    2.1297    0.0000 H   0  0  0  0  0  0  0  0  0  0  0  0
    6.5200    1.9024    0.0000 H   0  0  0  0  0  0  0  0  0  0  0  0
    6.1215    1.2121    0.0000 H   0  0  0  0  0  0  0  0  0  0  0  0
    6.9407   -3.7520    0.0000 H   0  0  0  0  0  0  0  0  0  0  0  0
    6.5422   -3.0618    0.0000 H   0  0  0  0  0  0  0  0  0  0  0  0
    9.7520   -2.4278    0.0000 H   0  0  0  0  0  0  0  0  0  0  0  0
    9.3535   -3.1181    0.0000 H   0  0  0  0  0  0  0  0  0  0  0  0
    9.4390   -0.9448    0.0000 H   0  0  0  0  0  0  0  0  0  0  0  0
    9.4390   -0.1478    0.0000 H   0  0  0  0  0  0  0  0  0  0  0  0
    4.3860   -3.0618    0.0000 H   0  0  0  0  0  0  0  0  0  0  0  0
    3.9875   -3.7520    0.0000 H   0  0  0  0  0  0  0  0  0  0  0  0
   10.4316   -4.9853    0.0000 H   0  0  0  0  0  0  0  0  0  0  0  0
   11.2287   -4.9853    0.0000 H   0  0  0  0  0  0  0  0  0  0  0  0
    5.0656   -5.6193    0.0000 H   0  0  0  0  0  0  0  0  0  0  0  0
    5.8626   -5.6193    0.0000 H   0  0  0  0  0  0  0  0  0  0  0  0
   12.3067   -3.1181    0.0000 H   0  0  0  0  0  0  0  0  0  0  0  0
   11.9082   -2.4278    0.0000 H   0  0  0  0  0  0  0  0  0  0  0  0
    6.0718   -1.6678    0.0000 H   0  0  0  0  0  0  0  0  0  0  0  0
    5.3815   -2.0663    0.0000 H   0  0  0  0  0  0  0  0  0  0  0  0
    8.3815   -4.2224    0.0000 H   0  0  0  0  0  0  0  0  0  0  0  0
    9.0718   -4.6210    0.0000 H   0  0  0  0  0  0  0  0  0  0  0  0
    4.5981   -5.2644    0.0000 H   0  0  0  0  0  0  0  0  0  0  0  0
   12.2331   -3.7004    0.0000 H   0  0  0  0  0  0  0  0  0  0  0  0
    9.4641   -0.3003    0.0000 H   0  0  0  0  0  0  0  0  0  0  0  0
   10.0841    0.3197    0.0000 H   0  0  0  0  0  0  0  0  0  0  0  0
    9.4641    0.9397    0.0000 H   0  0  0  0  0  0  0  0  0  0  0  0
    5.6951   -0.2363    0.0000 H   0  0  0  0  0  0  0  0  0  0  0  0
    5.9220   -1.0832    0.0000 H   0  0  0  0  0  0  0  0  0  0  0  0
    6.7690   -0.8563    0.0000 H   0  0  0  0  0  0  0  0  0  0  0  0
    5.7320    0.9397    0.0000 H   0  0  0  0  0  0  0  0  0  0  0  0
    5.1120    0.3197    0.0000 H   0  0  0  0  0  0  0  0  0  0  0  0
    5.7320   -0.3003    0.0000 H   0  0  0  0  0  0  0  0  0  0  0  0
    5.5010   -1.9683    0.0000 H   0  0  0  0  0  0  0  0  0  0  0  0
    4.6541   -1.7414    0.0000 H   0  0  0  0  0  0  0  0  0  0  0  0
    4.4272   -2.5883    0.0000 H   0  0  0  0  0  0  0  0  0  0  0  0
    8.9272   -4.5664    0.0000 H   0  0  0  0  0  0  0  0  0  0  0  0
    9.1541   -5.4134    0.0000 H   0  0  0  0  0  0  0  0  0  0  0  0
   10.0010   -5.1864    0.0000 H   0  0  0  0  0  0  0  0  0  0  0  0
    6.2932   -5.8204    0.0000 H   0  0  0  0  0  0  0  0  0  0  0  0
    7.1401   -6.0473    0.0000 H   0  0  0  0  0  0  0  0  0  0  0  0
    7.3671   -5.2004    0.0000 H   0  0  0  0  0  0  0  0  0  0  0  0
    7.3301   -5.2644    0.0000 H   0  0  0  0  0  0  0  0  0  0  0  0
    7.9501   -4.6444    0.0000 H   0  0  0  0  0  0  0  0  0  0  0  0
    7.3301   -4.0244    0.0000 H   0  0  0  0  0  0  0  0  0  0  0  0
   11.8671   -1.9544    0.0000 H   0  0  0  0  0  0  0  0  0  0  0  0
   11.6401   -1.1074    0.0000 H   0  0  0  0  0  0  0  0  0  0  0  0
   10.7932   -1.3344    0.0000 H   0  0  0  0  0  0  0  0  0  0  0  0
   10.8671   -1.3344    0.0000 H   0  0  0  0  0  0  0  0  0  0  0  0
   10.0201   -1.1074    0.0000 H   0  0  0  0  0  0  0  0  0  0  0  0
    9.7932   -1.9544    0.0000 H   0  0  0  0  0  0  0  0  0  0  0  0
    8.1350    3.1297    0.0000 H   0  0  0  0  0  0  0  0  0  0  0  0
    7.7710    4.1492    0.0000 H   0  0  0  0  0  0  0  0  0  0  0  0
    8.2530    4.7536    0.0000 H   0  0  0  0  0  0  0  0  0  0  0  0
    8.4141    5.4596    0.0000 H   0  0  0  0  0  0  0  0  0  0  0  0
    8.2421    6.2133    0.0000 H   0  0  0  0  0  0  0  0  0  0  0  0
    5.2220    6.2133    0.0000 H   0  0  0  0  0  0  0  0  0  0  0  0
    5.0500    5.4596    0.0000 H   0  0  0  0  0  0  0  0  0  0  0  0
    7.7906    6.7794    0.0000 H   0  0  0  0  0  0  0  0  0  0  0  0
    7.0941    7.1148    0.0000 H   0  0  0  0  0  0  0  0  0  0  0  0
    6.3700    7.1148    0.0000 H   0  0  0  0  0  0  0  0  0  0  0  0
    5.6734    6.7794    0.0000 H   0  0  0  0  0  0  0  0  0  0  0  0
  1 45  2  0  0  0  0
  2 46  2  0  0  0  0
  3 47  2  0  0  0  0
  4 48  2  0  0  0  0
  5 49  2  0  0  0  0
  6 50  2  0  0  0  0
  7 52  2  0  0  0  0
  8 27  1  0  0  0  0
  8 45  1  0  0  0  0
  8 46  1  0  0  0  0
  9 32  1  0  0  0  0
  9 45  1  0  0  0  0
  9 47  1  0  0  0  0
 10 33  1  0  0  0  0
 10 46  1  0  0  0  0
 10 47  1  0  0  0  0
 11 21  1  0  0  0  0
 11 48  1  0  0  0  0
 11111  1  0  0  0  0
 12 34  1  0  0  0  0
 12 49  2  0  0  0  0
 13 35  1  0  0  0  0
 13 50  2  0  0  0  0
 14 48  1  0  0  0  0
 14 51  1  0  0  0  0
 14 52  1  0  0  0  0
 15 17  1  0  0  0  0
 15 20  1  0  0  0  0
 15 27  1  0  0  0  0
 15 36  1  0  0  0  0
 16 17  1  0  0  0  0
 16 22  1  0  0  0  0
 16 37  1  0  0  0  0
 16 38  1  0  0  0  0
 17 57  1  0  0  0  0
 17 58  1  0  0  0  0
 18 25  1  0  0  0  0
 18 28  1  0  0  0  0
 18 32  1  0  0  0  0
 18 39  1  0  0  0  0
 19 26  1  0  0  0  0
 19 29  1  0  0  0  0
 19 33  1  0  0  0  0
 19 40  1  0  0  0  0
 20 21  1  0  0  0  0
 20 59  1  0  0  0  0
 20 60  1  0  0  0  0
 21 22  1  0  0  0  0
 21 61  1  0  0  0  0
 22 62  1  0  0  0  0
 22 63  1  0  0  0  0
 23 25  1  0  0  0  0
 23 30  1  0  0  0  0
 23 41  1  0  0  0  0
 23 42  1  0  0  0  0
 24 26  1  0  0  0  0
 24 31  1  0  0  0  0
 24 43  1  0  0  0  0
 24 44  1  0  0  0  0
 25 64  1  0  0  0  0
 25 65  1  0  0  0  0
 26 66  1  0  0  0  0
 26 67  1  0  0  0  0
 27 68  1  0  0  0  0
 27 69  1  0  0  0  0
 28 34  1  0  0  0  0
 28 70  1  0  0  0  0
 28 71  1  0  0  0  0
 29 35  1  0  0  0  0
 29 72  1  0  0  0  0
 29 73  1  0  0  0  0
 30 34  1  0  0  0  0
 30 74  1  0  0  0  0
 30 75  1  0  0  0  0
 31 35  1  0  0  0  0
 31 76  1  0  0  0  0
 31 77  1  0  0  0  0
 32 78  1  0  0  0  0
 32 79  1  0  0  0  0
 33 80  1  0  0  0  0
 33 81  1  0  0  0  0
 34 82  1  0  0  0  0
 35 83  1  0  0  0  0
 36 84  1  0  0  0  0
 36 85  1  0  0  0  0
 36 86  1  0  0  0  0
 37 87  1  0  0  0  0
 37 88  1  0  0  0  0
 37 89  1  0  0  0  0
 38 90  1  0  0  0  0
 38 91  1  0  0  0  0
 38 92  1  0  0  0  0
 39 93  1  0  0  0  0
 39 94  1  0  0  0  0
 39 95  1  0  0  0  0
 40 96  1  0  0  0  0
 40 97  1  0  0  0  0
 40 98  1  0  0  0  0
 41 99  1  0  0  0  0
 41100  1  0  0  0  0
 41101  1  0  0  0  0
 42102  1  0  0  0  0
 42103  1  0  0  0  0
 42104  1  0  0  0  0
 43105  1  0  0  0  0
 43106  1  0  0  0  0
 43107  1  0  0  0  0
 44108  1  0  0  0  0
 44109  1  0  0  0  0
 44110  1  0  0  0  0
 51 53  1  0  0  0  0
 51112  1  0  0  0  0
 51113  1  0  0  0  0
 52 54  1  0  0  0  0
 53 55  1  0  0  0  0
 53114  1  0  0  0  0
 53115  1  0  0  0  0
 54 56  1  0  0  0  0
 54116  1  0  0  0  0
 54117  1  0  0  0  0
 55 56  1  0  0  0  0
 55118  1  0  0  0  0
 55119  1  0  0  0  0
 56120  1  0  0  0  0
 56121  1  0  0  0  0
M  END
> <PUBCHEM_COMPOUND_CID>
72942007

> <PUBCHEM_COMPOUND_CANONICALIZED>
1

> <PUBCHEM_CACTVS_COMPLEXITY>
1600

> <PUBCHEM_CACTVS_HBOND_ACCEPTOR>
9

> <PUBCHEM_CACTVS_HBOND_DONOR>
1

> <PUBCHEM_CACTVS_ROTATABLE_BOND>
9

> <PUBCHEM_CACTVS_SUBSKEYS>
AAADcfB/uAAAAAAAAAAAAAAAAAAAAAAAAAA8YMEABYAAAAAAAAAAHgAQAAAADijBgAQDAAPAAAAoAAEQFAAAAAAAAAAAAIEIAACAABIAgAAEAAAIFyKAAAEYiEAPAAAAAAAAAAAAAASAAAAAAAAAAAAAAA==

> <PUBCHEM_IUPAC_OPENEYE_NAME>
N-[3-[[3,5-bis[(5-isocyanato-1,3,3-trimethyl-cyclohexyl)methyl]-2,4,6-trioxo-1,3,5-triazinan-1-yl]methyl]-3,5,5-trimethyl-cyclohexyl]-2-oxo-azepane-1-carboxamide

> <PUBCHEM_IUPAC_CAS_NAME>
N-[3-[[3,5-bis[(5-isocyanato-1,3,3-trimethylcyclohexyl)methyl]-2,4,6-trioxo-1,3,5-triazinan-1-yl]methyl]-3,5,5-trimethylcyclohexyl]-2-oxo-1-azepanecarboxamide

> <PUBCHEM_IUPAC_NAME_MARKUP>
<I>N</I>-[3-[[3,5-bis[(5-isocyanato-1,3,3-trimethylcyclohexyl)methyl]-2,4,6-trioxo-1,3,5-triazinan-1-yl]methyl]-3,5,5-trimethylcyclohexyl]-2-oxoazepane-1-carboxamide

> <PUBCHEM_IUPAC_NAME>
N-[3-[[3,5-bis[(5-isocyanato-1,3,3-trimethylcyclohexyl)methyl]-2,4,6-trioxo-1,3,5-triazinan-1-yl]methyl]-3,5,5-trimethylcyclohexyl]-2-oxoazepane-1-carboxamide

> <PUBCHEM_IUPAC_SYSTEMATIC_NAME>
N-[3-[[3,5-bis[(5-isocyanato-1,3,3-trimethyl-cyclohexyl)methyl]-2,4,6-tris(oxidanylidene)-1,3,5-triazinan-1-yl]methyl]-3,5,5-trimethyl-cyclohexyl]-2-oxidanylidene-azepane-1-carboxamide

> <PUBCHEM_IUPAC_TRADITIONAL_NAME>
N-[3-[[3,5-bis[(5-isocyanato-1,3,3-trimethyl-cyclohexyl)methyl]-2,4,6-triketo-1,3,5-triazinan-1-yl]methyl]-3,5,5-trimethyl-cyclohexyl]-2-keto-azepane-1-carboxamide

> <PUBCHEM_IUPAC_INCHI>
InChI=1S/C42H65N7O7/c1-37(2)15-29(43-27-50)18-40(7,21-37)24-47-34(54)48(25-41(8)19-30(44-28-51)16-38(3,4)22-41)36(56)49(35(47)55)26-42(9)20-31(17-39(5,6)23-42)45-33(53)46-14-12-10-11-13-32(46)52/h29-31H,10-26H2,1-9H3,(H,45,53)

> <PUBCHEM_IUPAC_INCHIKEY>
CNJPXTNLTQOBJY-UHFFFAOYSA-N

> <PUBCHEM_XLOGP3_AA>
9

> <PUBCHEM_EXACT_MASS>
779.49454744

> <PUBCHEM_MOLECULAR_FORMULA>
C42H65N7O7

> <PUBCHEM_MOLECULAR_WEIGHT>
780.0

> <PUBCHEM_SMILES>
CC1(CC(CC(C1)(C)CN2C(=O)N(C(=O)N(C2=O)CC3(CC(CC(C3)(C)C)N=C=O)C)CC4(CC(CC(C4)(C)C)N=C=O)C)NC(=O)N5CCCCCC5=O)C

> <PUBCHEM_OPENEYE_CAN_SMILES>
CC1(CC(CC(C1)(C)CN2C(=O)N(C(=O)N(C2=O)CC3(CC(CC(C3)(C)C)N=C=O)C)CC4(CC(CC(C4)(C)C)N=C=O)C)NC(=O)N5CCCCCC5=O)C

> <PUBCHEM_OPENEYE_ISO_SMILES>
CC1(CC(CC(C1)(C)CN2C(=O)N(C(=O)N(C2=O)CC3(CC(CC(C3)(C)C)N=C=O)C)CC4(CC(CC(C4)(C)C)N=C=O)C)NC(=O)N5CCCCCC5=O)C

> <PUBCHEM_CACTVS_TPSA>
169

> <PUBCHEM_MONOISOTOPIC_WEIGHT>
779.49454744

> <PUBCHEM_TOTAL_CHARGE>
0

> <PUBCHEM_HEAVY_ATOM_COUNT>
56

> <PUBCHEM_ATOM_DEF_STEREO_COUNT>
0

> <PUBCHEM_ATOM_UDEF_STEREO_COUNT>
6

> <PUBCHEM_BOND_DEF_STEREO_COUNT>
0

> <PUBCHEM_BOND_UDEF_STEREO_COUNT>
0

> <PUBCHEM_ISOTOPIC_ATOM_COUNT>
0

> <PUBCHEM_COMPONENT_COUNT>
1

> <PUBCHEM_CACTVS_TAUTO_COUNT>
-1

> <PUBCHEM_COORDINATE_TYPE>
1
5
255

> <PUBCHEM_BONDANNOTATIONS>
10  46  8
10  47  8
21  11  3
34  12  3
35  13  3
15  36  3
18  39  3
19  40  3
8  45  8
8  46  8
9  45  8
9  47  8

$$$$
