72941678
  -OEChem-04042506002D

 64 69  0     0  0  0  0  0  0999 V2000
    5.4427    2.5531    0.0000 O   0  0  0  0  0  0  0  0  0  0  0  0
    5.4427   -2.5531    0.0000 O   0  0  0  0  0  0  0  0  0  0  0  0
    2.0000    2.4853    0.0000 O   0  0  0  0  0  0  0  0  0  0  0  0
    2.0000   -2.4853    0.0000 O   0  0  0  0  0  0  0  0  0  0  0  0
    4.4990    7.0153    0.0000 O   0  0  0  0  0  0  0  0  0  0  0  0
    4.4990   -7.0153    0.0000 O   0  0  0  0  0  0  0  0  0  0  0  0
    2.7673    6.9812    0.0000 O   0  0  0  0  0  0  0  0  0  0  0  0
    2.7673   -6.9812    0.0000 O   0  0  0  0  0  0  0  0  0  0  0  0
    3.7218    2.4991    0.0000 N   0  0  0  0  0  0  0  0  0  0  0  0
    3.7218   -2.4991    0.0000 N   0  0  0  0  0  0  0  0  0  0  0  0
    3.7370    0.5000    0.0000 C   0  0  0  0  0  0  0  0  0  0  0  0
    3.7370   -0.5000    0.0000 C   0  0  0  0  0  0  0  0  0  0  0  0
    4.6309    1.0347    0.0000 C   0  0  0  0  0  0  0  0  0  0  0  0
    2.8710    1.0000    0.0000 C   0  0  0  0  0  0  0  0  0  0  0  0
    4.6309   -1.0347    0.0000 C   0  0  0  0  0  0  0  0  0  0  0  0
    2.8710   -1.0000    0.0000 C   0  0  0  0  0  0  0  0  0  0  0  0
    4.5931    2.0256    0.0000 C   0  0  0  0  0  0  0  0  0  0  0  0
    4.5931   -2.0256    0.0000 C   0  0  0  0  0  0  0  0  0  0  0  0
    2.8697    1.9917    0.0000 C   0  0  0  0  0  0  0  0  0  0  0  0
    2.8697   -1.9917    0.0000 C   0  0  0  0  0  0  0  0  0  0  0  0
    5.5370    0.5208    0.0000 C   0  0  0  0  0  0  0  0  0  0  0  0
    2.0049    0.5000    0.0000 C   0  0  0  0  0  0  0  0  0  0  0  0
    5.5370   -0.5208    0.0000 C   0  0  0  0  0  0  0  0  0  0  0  0
    2.0049   -0.5000    0.0000 C   0  0  0  0  0  0  0  0  0  0  0  0
    3.7021    3.4990    0.0000 C   0  0  0  0  0  0  0  0  0  0  0  0
    3.7021   -3.4990    0.0000 C   0  0  0  0  0  0  0  0  0  0  0  0
    4.5581    4.0159    0.0000 C   0  0  0  0  0  0  0  0  0  0  0  0
    2.8264    3.9818    0.0000 C   0  0  0  0  0  0  0  0  0  0  0  0
    2.8264   -3.9818    0.0000 C   0  0  0  0  0  0  0  0  0  0  0  0
    4.5581   -4.0159    0.0000 C   0  0  0  0  0  0  0  0  0  0  0  0
    4.5384    5.0157    0.0000 C   0  0  0  0  0  0  0  0  0  0  0  0
    2.8067    4.9816    0.0000 C   0  0  0  0  0  0  0  0  0  0  0  0
    2.8067   -4.9816    0.0000 C   0  0  0  0  0  0  0  0  0  0  0  0
    4.5384   -5.0157    0.0000 C   0  0  0  0  0  0  0  0  0  0  0  0
    3.6627    5.4986    0.0000 C   0  0  0  0  0  0  0  0  0  0  0  0
    3.6627   -5.4986    0.0000 C   0  0  0  0  0  0  0  0  0  0  0  0
    3.6430    6.4984    0.0000 C   0  0  0  0  0  0  0  0  0  0  0  0
    3.6430   -6.4984    0.0000 C   0  0  0  0  0  0  0  0  0  0  0  0
    4.4793    8.0151    0.0000 C   0  0  0  0  0  0  0  0  0  0  0  0
    4.4793   -8.0151    0.0000 C   0  0  0  0  0  0  0  0  0  0  0  0
    5.3353    8.5321    0.0000 C   0  0  0  0  0  0  0  0  0  0  0  0
    5.3353   -8.5321    0.0000 C   0  0  0  0  0  0  0  0  0  0  0  0
    6.0727    0.8329    0.0000 H   0  0  0  0  0  0  0  0  0  0  0  0
    1.4680    0.8100    0.0000 H   0  0  0  0  0  0  0  0  0  0  0  0
    6.0727   -0.8329    0.0000 H   0  0  0  0  0  0  0  0  0  0  0  0
    1.4680   -0.8100    0.0000 H   0  0  0  0  0  0  0  0  0  0  0  0
    5.1010    3.7165    0.0000 H   0  0  0  0  0  0  0  0  0  0  0  0
    2.2956    3.6613    0.0000 H   0  0  0  0  0  0  0  0  0  0  0  0
    2.2956   -3.6613    0.0000 H   0  0  0  0  0  0  0  0  0  0  0  0
    5.1010   -3.7165    0.0000 H   0  0  0  0  0  0  0  0  0  0  0  0
    5.0691    5.3362    0.0000 H   0  0  0  0  0  0  0  0  0  0  0  0
    2.2637    5.2810    0.0000 H   0  0  0  0  0  0  0  0  0  0  0  0
    2.2637   -5.2810    0.0000 H   0  0  0  0  0  0  0  0  0  0  0  0
    5.0691   -5.3362    0.0000 H   0  0  0  0  0  0  0  0  0  0  0  0
    4.2558    8.5934    0.0000 H   0  0  0  0  0  0  0  0  0  0  0  0
    3.8710    7.8955    0.0000 H   0  0  0  0  0  0  0  0  0  0  0  0
    3.8710   -7.8955    0.0000 H   0  0  0  0  0  0  0  0  0  0  0  0
    4.2558   -8.5934    0.0000 H   0  0  0  0  0  0  0  0  0  0  0  0
    5.6558    8.0014    0.0000 H   0  0  0  0  0  0  0  0  0  0  0  0
    5.8661    8.8526    0.0000 H   0  0  0  0  0  0  0  0  0  0  0  0
    5.0148    9.0628    0.0000 H   0  0  0  0  0  0  0  0  0  0  0  0
    5.0148   -9.0628    0.0000 H   0  0  0  0  0  0  0  0  0  0  0  0
    5.8661   -8.8526    0.0000 H   0  0  0  0  0  0  0  0  0  0  0  0
    5.6558   -8.0014    0.0000 H   0  0  0  0  0  0  0  0  0  0  0  0
  1 17  2  0  0  0  0
  2 18  2  0  0  0  0
  3 19  2  0  0  0  0
  4 20  2  0  0  0  0
  5 37  1  0  0  0  0
  5 39  1  0  0  0  0
  6 38  1  0  0  0  0
  6 40  1  0  0  0  0
  7 37  2  0  0  0  0
  8 38  2  0  0  0  0
  9 17  1  0  0  0  0
  9 19  1  0  0  0  0
  9 25  1  0  0  0  0
 10 18  1  0  0  0  0
 10 20  1  0  0  0  0
 10 26  1  0  0  0  0
 11 12  1  0  0  0  0
 11 13  2  0  0  0  0
 11 14  1  0  0  0  0
 12 15  2  0  0  0  0
 12 16  1  0  0  0  0
 13 17  1  0  0  0  0
 13 21  1  0  0  0  0
 14 19  1  0  0  0  0
 14 22  2  0  0  0  0
 15 18  1  0  0  0  0
 15 23  1  0  0  0  0
 16 20  1  0  0  0  0
 16 24  2  0  0  0  0
 21 23  2  0  0  0  0
 21 43  1  0  0  0  0
 22 24  1  0  0  0  0
 22 44  1  0  0  0  0
 23 45  1  0  0  0  0
 24 46  1  0  0  0  0
 25 27  2  0  0  0  0
 25 28  1  0  0  0  0
 26 29  2  0  0  0  0
 26 30  1  0  0  0  0
 27 31  1  0  0  0  0
 27 47  1  0  0  0  0
 28 32  2  0  0  0  0
 28 48  1  0  0  0  0
 29 33  1  0  0  0  0
 29 49  1  0  0  0  0
 30 34  2  0  0  0  0
 30 50  1  0  0  0  0
 31 35  2  0  0  0  0
 31 51  1  0  0  0  0
 32 35  1  0  0  0  0
 32 52  1  0  0  0  0
 33 36  2  0  0  0  0
 33 53  1  0  0  0  0
 34 36  1  0  0  0  0
 34 54  1  0  0  0  0
 35 37  1  0  0  0  0
 36 38  1  0  0  0  0
 39 41  1  0  0  0  0
 39 55  1  0  0  0  0
 39 56  1  0  0  0  0
 40 42  1  0  0  0  0
 40 57  1  0  0  0  0
 40 58  1  0  0  0  0
 41 59  1  0  0  0  0
 41 60  1  0  0  0  0
 41 61  1  0  0  0  0
 42 62  1  0  0  0  0
 42 63  1  0  0  0  0
 42 64  1  0  0  0  0
M  END
> <PUBCHEM_COMPOUND_CID>
72941678

> <PUBCHEM_COMPOUND_CANONICALIZED>
1

> <PUBCHEM_CACTVS_COMPLEXITY>
1000

> <PUBCHEM_CACTVS_HBOND_ACCEPTOR>
8

> <PUBCHEM_CACTVS_HBOND_DONOR>
0

> <PUBCHEM_CACTVS_ROTATABLE_BOND>
8

> <PUBCHEM_CACTVS_SUBSKEYS>
AAADceB/PAAAAAAAAAAAAAAAAAAAAAAAAAA8eMGCAAAAAACxVAAAHgAAAAAADAihmAIyyMMABACIAiXSWACCAAAlAgAIiAEAbMgIJjLAtZmGMQhkxCHI6YeY2+OeyAACAAAQAACQAAQAACAAAAAAAAAAAA==

> <PUBCHEM_IUPAC_OPENEYE_NAME>
ethyl 4-[13-(4-ethoxycarbonylphenyl)-5,7,12,14-tetraoxo-6,13-diazatetracyclo[6.6.2.04,16.011,15]hexadeca-1(15),2,4(16),8,10-pentaen-6-yl]benzoate

> <PUBCHEM_IUPAC_CAS_NAME>
4-[13-(4-ethoxycarbonylphenyl)-5,7,12,14-tetraoxo-6,13-diazatetracyclo[6.6.2.04,16.011,15]hexadeca-1(15),2,4(16),8,10-pentaen-6-yl]benzoic acid ethyl ester

> <PUBCHEM_IUPAC_NAME_MARKUP>
ethyl 4-[13-(4-ethoxycarbonylphenyl)-5,7,12,14-tetraoxo-6,13-diazatetracyclo[6.6.2.0<SUP>4,16</SUP>.0<SUP>11,15</SUP>]hexadeca-1(15),2,4(16),8,10-pentaen-6-yl]benzoate

> <PUBCHEM_IUPAC_NAME>
ethyl 4-[13-(4-ethoxycarbonylphenyl)-5,7,12,14-tetraoxo-6,13-diazatetracyclo[6.6.2.04,16.011,15]hexadeca-1(15),2,4(16),8,10-pentaen-6-yl]benzoate

> <PUBCHEM_IUPAC_SYSTEMATIC_NAME>
ethyl 4-[13-(4-ethoxycarbonylphenyl)-5,7,12,14-tetrakis(oxidanylidene)-6,13-diazatetracyclo[6.6.2.04,16.011,15]hexadeca-1(15),2,4(16),8,10-pentaen-6-yl]benzoate

> <PUBCHEM_IUPAC_TRADITIONAL_NAME>
4-[13-(4-carbethoxyphenyl)-5,7,12,14-tetraketo-6,13-diazatetracyclo[6.6.2.04,16.011,15]hexadeca-1(15),2,4(16),8,10-pentaen-6-yl]benzoic acid ethyl ester

> <PUBCHEM_IUPAC_INCHI>
InChI=1S/C32H22N2O8/c1-3-41-31(39)17-5-9-19(10-6-17)33-27(35)21-13-15-23-26-24(16-14-22(25(21)26)28(33)36)30(38)34(29(23)37)20-11-7-18(8-12-20)32(40)42-4-2/h5-16H,3-4H2,1-2H3

> <PUBCHEM_IUPAC_INCHIKEY>
VJGZSQFTKVTZJM-UHFFFAOYSA-N

> <PUBCHEM_XLOGP3_AA>
4.7

> <PUBCHEM_EXACT_MASS>
562.13761566

> <PUBCHEM_MOLECULAR_FORMULA>
C32H22N2O8

> <PUBCHEM_MOLECULAR_WEIGHT>
562.5

> <PUBCHEM_SMILES>
CCOC(=O)C1=CC=C(C=C1)N2C(=O)C3=C4C(=CC=C5C4=C(C=C3)C(=O)N(C5=O)C6=CC=C(C=C6)C(=O)OCC)C2=O

> <PUBCHEM_OPENEYE_CAN_SMILES>
CCOC(=O)C1=CC=C(C=C1)N2C(=O)C3=C4C(=CC=C5C4=C(C=C3)C(=O)N(C5=O)C6=CC=C(C=C6)C(=O)OCC)C2=O

> <PUBCHEM_OPENEYE_ISO_SMILES>
CCOC(=O)C1=CC=C(C=C1)N2C(=O)C3=C4C(=CC=C5C4=C(C=C3)C(=O)N(C5=O)C6=CC=C(C=C6)C(=O)OCC)C2=O

> <PUBCHEM_CACTVS_TPSA>
127

> <PUBCHEM_MONOISOTOPIC_WEIGHT>
562.13761566

> <PUBCHEM_TOTAL_CHARGE>
0

> <PUBCHEM_HEAVY_ATOM_COUNT>
42

> <PUBCHEM_ATOM_DEF_STEREO_COUNT>
0

> <PUBCHEM_ATOM_UDEF_STEREO_COUNT>
0

> <PUBCHEM_BOND_DEF_STEREO_COUNT>
0

> <PUBCHEM_BOND_UDEF_STEREO_COUNT>
0

> <PUBCHEM_ISOTOPIC_ATOM_COUNT>
0

> <PUBCHEM_COMPONENT_COUNT>
1

> <PUBCHEM_CACTVS_TAUTO_COUNT>
-1

> <PUBCHEM_COORDINATE_TYPE>
1
5
255

> <PUBCHEM_BONDANNOTATIONS>
11  12  8
11  13  8
11  14  8
12  15  8
12  16  8
13  21  8
14  22  8
15  23  8
16  24  8
21  23  8
22  24  8
25  27  8
25  28  8
26  29  8
26  30  8
27  31  8
28  32  8
29  33  8
30  34  8
31  35  8
32  35  8
33  36  8
34  36  8

$$$$
