72941503
  -OEChem-04042512232D

 23 16  0     0  0  0  0  0  0999 V2000
    8.2071    1.5856    0.0000 Sb  0  0  0  0  0  0  0  0  0  0  0  0
    2.7071   -2.0125    0.0000 Sb  0  0  0  0  0  0  0  0  0  0  0  0
    5.2071   -0.1464    0.0000 Sb  0  0  0  0  0  0  0  0  0  0  0  0
    5.8411    2.2196    0.0000 Sb  0  0  0  0  0  0  0  0  0  0  0  0
    6.7071    0.7196    0.0000 Sn  0  0  0  0  0  0  0  0  0  0  0  0
    6.0731   -1.6464    0.0000 Sn  0  0  0  0  0  0  0  0  0  0  0  0
    3.7071   -1.0125    0.0000 Sn  0  0  0  0  0  0  0  0  0  0  0  0
    7.7071    0.7196    0.0000 O   0  5  0  0  0  0  0  0  0  0  0  0
    7.0731   -1.6464    0.0000 O   0  5  0  0  0  0  0  0  0  0  0  0
    5.0731   -1.6464    0.0000 O   0  5  0  0  0  0  0  0  0  0  0  0
    3.7071   -2.0125    0.0000 O   0  5  0  0  0  0  0  0  0  0  0  0
    2.7071   -1.0125    0.0000 O   0  5  0  0  0  0  0  0  0  0  0  0
    3.7071   -0.0125    0.0000 O   0  5  0  0  0  0  0  0  0  0  0  0
    5.7071    0.7196    0.0000 O   0  5  0  0  0  0  0  0  0  0  0  0
    6.0731   -0.6464    0.0000 O   0  5  0  0  0  0  0  0  0  0  0  0
    4.7071   -1.0125    0.0000 O   0  5  0  0  0  0  0  0  0  0  0  0
    6.7071    1.7196    0.0000 O   0  5  0  0  0  0  0  0  0  0  0  0
    6.7071   -0.2804    0.0000 O   0  5  0  0  0  0  0  0  0  0  0  0
    6.0731   -2.6465    0.0000 O   0  5  0  0  0  0  0  0  0  0  0  0
    8.7071    2.4516    0.0000 O   0  0  0  0  0  0  0  0  0  0  0  0
    2.0000   -2.7196    0.0000 O   0  0  0  0  0  0  0  0  0  0  0  0
    4.3411    0.3536    0.0000 O   0  0  0  0  0  0  0  0  0  0  0  0
    4.9751    2.7196    0.0000 O   0  0  0  0  0  0  0  0  0  0  0  0
  1  8  1  0  0  0  0
  1  9  1  0  0  0  0
  1 10  1  0  0  0  0
  1 20  2  0  0  0  0
  2 11  1  0  0  0  0
  2 12  1  0  0  0  0
  2 13  1  0  0  0  0
  2 21  2  0  0  0  0
  3 14  1  0  0  0  0
  3 15  1  0  0  0  0
  3 16  1  0  0  0  0
  3 22  2  0  0  0  0
  4 17  1  0  0  0  0
  4 18  1  0  0  0  0
  4 19  1  0  0  0  0
  4 23  2  0  0  0  0
M  CHG  8   5   4   6   4   7   4   8  -1   9  -1  10  -1  11  -1  12  -1
M  CHG  7  13  -1  14  -1  15  -1  16  -1  17  -1  18  -1  19  -1
M  END
> <PUBCHEM_COMPOUND_CID>
72941503

> <PUBCHEM_COMPOUND_CANONICALIZED>
1

> <PUBCHEM_CACTVS_COMPLEXITY>
36.8

> <PUBCHEM_CACTVS_HBOND_ACCEPTOR>
16

> <PUBCHEM_CACTVS_HBOND_DONOR>
0

> <PUBCHEM_CACTVS_ROTATABLE_BOND>
0

> <PUBCHEM_CACTVS_SUBSKEYS>
AAADcQAAPgAAAAAAAADAAAAAAAAAAAAAAAAAAAAAAAAAAAAAAAAAAAAAAAAAAAAAAAAAAAAAAAAAAAAAAAAAAAAAAAAAAAAAAAAAAAAAAAAAAAAAAAAAAAAAAAAAAAAAAAAAAAAAAAAAAAAAAAAAAAAAAA==

> <PUBCHEM_IUPAC_OPENEYE_NAME>
tristannic;tetrastiborate

> <PUBCHEM_IUPAC_CAS_NAME>
tin(4+);tetrastiborate

> <PUBCHEM_IUPAC_NAME_MARKUP>
tin(4+);tetrastiborate

> <PUBCHEM_IUPAC_NAME>
tin(4+);tetrastiborate

> <PUBCHEM_IUPAC_SYSTEMATIC_NAME>
tin(4+);tetrastiborate

> <PUBCHEM_IUPAC_TRADITIONAL_NAME>
tristannic;tetrastiborate

> <PUBCHEM_IUPAC_INCHI>
InChI=1S/16O.4Sb.3Sn/q;;;;12*-1;;;;;3*+4

> <PUBCHEM_IUPAC_INCHIKEY>
QMDBZZCMDZXBND-UHFFFAOYSA-N

> <PUBCHEM_EXACT_MASS>
1101.24070

> <PUBCHEM_MOLECULAR_FORMULA>
O16Sb4Sn3

> <PUBCHEM_MOLECULAR_WEIGHT>
1099.2

> <PUBCHEM_SMILES>
[O-][Sb](=O)([O-])[O-].[O-][Sb](=O)([O-])[O-].[O-][Sb](=O)([O-])[O-].[O-][Sb](=O)([O-])[O-].[Sn+4].[Sn+4].[Sn+4]

> <PUBCHEM_OPENEYE_CAN_SMILES>
[O-][Sb](=O)([O-])[O-].[O-][Sb](=O)([O-])[O-].[O-][Sb](=O)([O-])[O-].[O-][Sb](=O)([O-])[O-].[Sn+4].[Sn+4].[Sn+4]

> <PUBCHEM_OPENEYE_ISO_SMILES>
[O-][Sb](=O)([O-])[O-].[O-][Sb](=O)([O-])[O-].[O-][Sb](=O)([O-])[O-].[O-][Sb](=O)([O-])[O-].[Sn+4].[Sn+4].[Sn+4]

> <PUBCHEM_CACTVS_TPSA>
345

> <PUBCHEM_MONOISOTOPIC_WEIGHT>
1099.2405

> <PUBCHEM_TOTAL_CHARGE>
0

> <PUBCHEM_HEAVY_ATOM_COUNT>
23

> <PUBCHEM_ATOM_DEF_STEREO_COUNT>
0

> <PUBCHEM_ATOM_UDEF_STEREO_COUNT>
0

> <PUBCHEM_BOND_DEF_STEREO_COUNT>
0

> <PUBCHEM_BOND_UDEF_STEREO_COUNT>
0

> <PUBCHEM_ISOTOPIC_ATOM_COUNT>
0

> <PUBCHEM_COMPONENT_COUNT>
7

> <PUBCHEM_CACTVS_TAUTO_COUNT>
-1

> <PUBCHEM_COORDINATE_TYPE>
1
5
255

$$$$
