73555757
  -OEChem-04042505592D

 64 65  0     1  0  0  0  0  0999 V2000
    6.8671   -0.5771    0.0000 O   0  0  0  0  0  0  0  0  0  0  0  0
    8.3671    1.2890    0.0000 O   0  0  0  0  0  0  0  0  0  0  0  0
    5.1350   -0.5771    0.0000 O   0  0  0  0  0  0  0  0  0  0  0  0
    6.0010   -0.0771    0.0000 O   0  0  0  0  0  0  0  0  0  0  0  0
    5.3671    1.2890    0.0000 O   0  0  0  0  0  0  0  0  0  0  0  0
    6.3671    3.0210    0.0000 O   0  0  0  0  0  0  0  0  0  0  0  0
    6.8671   -2.5770    0.0000 O   0  0  0  0  0  0  0  0  0  0  0  0
    3.4030   -2.5770    0.0000 O   0  0  0  0  0  0  0  0  0  0  0  0
    5.1350   -3.5770    0.0000 O   0  0  0  0  0  0  0  0  0  0  0  0
    8.3671    3.0210    0.0000 O   0  0  0  0  0  0  0  0  0  0  0  0
    9.3671   -0.4431    0.0000 O   0  0  0  0  0  0  0  0  0  0  0  0
    2.5369   -1.0770    0.0000 O   0  0  0  0  0  0  0  0  0  0  0  0
    3.3671    3.0210    0.0000 O   0  0  0  0  0  0  0  0  0  0  0  0
    3.3671    1.2890    0.0000 O   0  0  0  0  0  0  0  0  0  0  0  0
    6.8671    0.4229    0.0000 C   0  0  3  0  0  0  0  0  0  0  0  0
    6.3671    1.2890    0.0000 C   0  0  3  0  0  0  0  0  0  0  0  0
    7.8671    0.4229    0.0000 C   0  0  3  0  0  0  0  0  0  0  0  0
    6.8671    2.1550    0.0000 C   0  0  3  0  0  0  0  0  0  0  0  0
    6.0010   -1.0770    0.0000 C   0  0  3  0  0  0  0  0  0  0  0  0
    6.0010   -2.0770    0.0000 C   0  0  3  0  0  0  0  0  0  0  0  0
    5.1350   -2.5770    0.0000 C   0  0  3  0  0  0  0  0  0  0  0  0
    4.2690   -2.0770    0.0000 C   0  0  3  0  0  0  0  0  0  0  0  0
    4.2690   -1.0770    0.0000 C   0  0  3  0  0  0  0  0  0  0  0  0
    7.8671    2.1550    0.0000 C   0  0  3  0  0  0  0  0  0  0  0  0
    8.3671   -0.4431    0.0000 C   0  0  0  0  0  0  0  0  0  0  0  0
    3.4030   -0.5771    0.0000 C   0  0  0  0  0  0  0  0  0  0  0  0
    5.1350    0.4229    0.0000 C   0  0  0  0  0  0  0  0  0  0  0  0
    4.8671    2.1550    0.0000 C   0  0  0  0  0  0  0  0  0  0  0  0
    6.8671    3.8870    0.0000 C   0  0  0  0  0  0  0  0  0  0  0  0
    6.8671   -3.5770    0.0000 C   0  0  0  0  0  0  0  0  0  0  0  0
    3.4030   -3.5770    0.0000 C   0  0  0  0  0  0  0  0  0  0  0  0
    3.8671    2.1550    0.0000 C   0  0  0  0  0  0  0  0  0  0  0  0
    6.0571    1.8259    0.0000 H   0  0  0  0  0  0  0  0  0  0  0  0
    8.4871    0.4229    0.0000 H   0  0  0  0  0  0  0  0  0  0  0  0
    7.1771    2.6919    0.0000 H   0  0  0  0  0  0  0  0  0  0  0  0
    6.0010   -0.4571    0.0000 H   0  0  0  0  0  0  0  0  0  0  0  0
    6.0010   -2.6970    0.0000 H   0  0  0  0  0  0  0  0  0  0  0  0
    4.5981   -2.8870    0.0000 H   0  0  0  0  0  0  0  0  0  0  0  0
    4.2690   -2.6970    0.0000 H   0  0  0  0  0  0  0  0  0  0  0  0
    4.2690   -0.4571    0.0000 H   0  0  0  0  0  0  0  0  0  0  0  0
    7.5571    2.6919    0.0000 H   0  0  0  0  0  0  0  0  0  0  0  0
    7.7844   -0.6551    0.0000 H   0  0  0  0  0  0  0  0  0  0  0  0
    8.4747   -1.0537    0.0000 H   0  0  0  0  0  0  0  0  0  0  0  0
    3.8015   -0.1021    0.0000 H   0  0  0  0  0  0  0  0  0  0  0  0
    3.0044   -0.1021    0.0000 H   0  0  0  0  0  0  0  0  0  0  0  0
    4.5981   -3.8870    0.0000 H   0  0  0  0  0  0  0  0  0  0  0  0
    5.4450    0.9599    0.0000 H   0  0  0  0  0  0  0  0  0  0  0  0
    4.5981    0.7329    0.0000 H   0  0  0  0  0  0  0  0  0  0  0  0
    4.8250   -0.1140    0.0000 H   0  0  0  0  0  0  0  0  0  0  0  0
    8.9871    3.0210    0.0000 H   0  0  0  0  0  0  0  0  0  0  0  0
    5.4497    2.3670    0.0000 H   0  0  0  0  0  0  0  0  0  0  0  0
    4.7594    2.7656    0.0000 H   0  0  0  0  0  0  0  0  0  0  0  0
    9.6771    0.0939    0.0000 H   0  0  0  0  0  0  0  0  0  0  0  0
    7.4040    3.5770    0.0000 H   0  0  0  0  0  0  0  0  0  0  0  0
    7.1771    4.4240    0.0000 H   0  0  0  0  0  0  0  0  0  0  0  0
    6.3301    4.1970    0.0000 H   0  0  0  0  0  0  0  0  0  0  0  0
    6.2471   -3.5770    0.0000 H   0  0  0  0  0  0  0  0  0  0  0  0
    6.8671   -4.1970    0.0000 H   0  0  0  0  0  0  0  0  0  0  0  0
    7.4871   -3.5770    0.0000 H   0  0  0  0  0  0  0  0  0  0  0  0
    2.7830   -3.5770    0.0000 H   0  0  0  0  0  0  0  0  0  0  0  0
    3.4030   -4.1970    0.0000 H   0  0  0  0  0  0  0  0  0  0  0  0
    4.0230   -3.5770    0.0000 H   0  0  0  0  0  0  0  0  0  0  0  0
    2.0000   -0.7671    0.0000 H   0  0  0  0  0  0  0  0  0  0  0  0
    2.7471    3.0210    0.0000 H   0  0  0  0  0  0  0  0  0  0  0  0
  1 15  1  0  0  0  0
  1 19  1  0  0  0  0
  2 17  1  0  0  0  0
  2 24  1  0  0  0  0
  3 19  1  0  0  0  0
  3 23  1  0  0  0  0
  4 15  1  0  0  0  0
  4 27  1  0  0  0  0
  5 16  1  0  0  0  0
  5 28  1  0  0  0  0
  6 18  1  0  0  0  0
  6 29  1  0  0  0  0
  7 20  1  0  0  0  0
  7 30  1  0  0  0  0
  8 22  1  0  0  0  0
  8 31  1  0  0  0  0
  9 21  1  0  0  0  0
  9 46  1  0  0  0  0
 10 24  1  0  0  0  0
 10 50  1  0  0  0  0
 11 25  1  0  0  0  0
 11 53  1  0  0  0  0
 12 26  1  0  0  0  0
 12 63  1  0  0  0  0
 13 32  1  0  0  0  0
 13 64  1  0  0  0  0
 14 32  2  0  0  0  0
 15 16  1  0  0  0  0
 15 17  1  0  0  0  0
 16 18  1  0  0  0  0
 16 33  1  0  0  0  0
 17 25  1  0  0  0  0
 17 34  1  0  0  0  0
 18 24  1  0  0  0  0
 18 35  1  0  0  0  0
 19 20  1  0  0  0  0
 19 36  1  0  0  0  0
 20 21  1  0  0  0  0
 20 37  1  0  0  0  0
 21 22  1  0  0  0  0
 21 38  1  0  0  0  0
 22 23  1  0  0  0  0
 22 39  1  0  0  0  0
 23 26  1  0  0  0  0
 23 40  1  0  0  0  0
 24 41  1  0  0  0  0
 25 42  1  0  0  0  0
 25 43  1  0  0  0  0
 26 44  1  0  0  0  0
 26 45  1  0  0  0  0
 27 47  1  0  0  0  0
 27 48  1  0  0  0  0
 27 49  1  0  0  0  0
 28 32  1  0  0  0  0
 28 51  1  0  0  0  0
 28 52  1  0  0  0  0
 29 54  1  0  0  0  0
 29 55  1  0  0  0  0
 29 56  1  0  0  0  0
 30 57  1  0  0  0  0
 30 58  1  0  0  0  0
 30 59  1  0  0  0  0
 31 60  1  0  0  0  0
 31 61  1  0  0  0  0
 31 62  1  0  0  0  0
M  END
> <PUBCHEM_COMPOUND_CID>
73555757

> <PUBCHEM_COMPOUND_CANONICALIZED>
1

> <PUBCHEM_CACTVS_COMPLEXITY>
592

> <PUBCHEM_CACTVS_HBOND_ACCEPTOR>
14

> <PUBCHEM_CACTVS_HBOND_DONOR>
5

> <PUBCHEM_CACTVS_ROTATABLE_BOND>
11

> <PUBCHEM_CACTVS_SUBSKEYS>
AAADcfB4PAAAAAAAAAAAAAAAAAAAAAAAAAAkSAAAAAAAAAAAAAAAGgAACAAACBSwgAMCCAAABgAIAACQCAIAAAAAAAAAAABAAAAREAIAAAQiQAAFAAAHAAHAYAwAAAAAAAAAAAAAAAAAAAAAAAAAAAAAAA==

> <PUBCHEM_IUPAC_OPENEYE_NAME>
2-[6-hydroxy-3-[4-hydroxy-6-(hydroxymethyl)-3,5-dimethoxy-tetrahydropyran-2-yl]oxy-2-(hydroxymethyl)-3,5-dimethoxy-tetrahydropyran-4-yl]oxyacetic acid

> <PUBCHEM_IUPAC_CAS_NAME>
2-[[6-hydroxy-3-[[4-hydroxy-6-(hydroxymethyl)-3,5-dimethoxy-2-oxanyl]oxy]-2-(hydroxymethyl)-3,5-dimethoxy-4-oxanyl]oxy]acetic acid

> <PUBCHEM_IUPAC_NAME_MARKUP>
2-[6-hydroxy-3-[4-hydroxy-6-(hydroxymethyl)-3,5-dimethoxyoxan-2-yl]oxy-2-(hydroxymethyl)-3,5-dimethoxyoxan-4-yl]oxyacetic acid

> <PUBCHEM_IUPAC_NAME>
2-[6-hydroxy-3-[4-hydroxy-6-(hydroxymethyl)-3,5-dimethoxyoxan-2-yl]oxy-2-(hydroxymethyl)-3,5-dimethoxyoxan-4-yl]oxyacetic acid

> <PUBCHEM_IUPAC_SYSTEMATIC_NAME>
2-[2-(hydroxymethyl)-3-[6-(hydroxymethyl)-3,5-dimethoxy-4-oxidanyl-oxan-2-yl]oxy-3,5-dimethoxy-6-oxidanyl-oxan-4-yl]oxyethanoic acid

> <PUBCHEM_IUPAC_TRADITIONAL_NAME>
2-[6-hydroxy-3-(4-hydroxy-3,5-dimethoxy-6-methylol-tetrahydropyran-2-yl)oxy-3,5-dimethoxy-2-methylol-tetrahydropyran-4-yl]oxyacetic acid

> <PUBCHEM_IUPAC_INCHI>
InChI=1S/C18H32O14/c1-25-12-8(5-19)30-17(13(26-2)11(12)23)32-18(28-4)9(6-20)31-16(24)14(27-3)15(18)29-7-10(21)22/h8-9,11-17,19-20,23-24H,5-7H2,1-4H3,(H,21,22)

> <PUBCHEM_IUPAC_INCHIKEY>
KUSLBPYBXHLYER-UHFFFAOYSA-N

> <PUBCHEM_XLOGP3_AA>
-3.8

> <PUBCHEM_EXACT_MASS>
472.17920569

> <PUBCHEM_MOLECULAR_FORMULA>
C18H32O14

> <PUBCHEM_MOLECULAR_WEIGHT>
472.4

> <PUBCHEM_SMILES>
COC1C(OC(C(C1O)OC)OC2(C(OC(C(C2OCC(=O)O)OC)O)CO)OC)CO

> <PUBCHEM_OPENEYE_CAN_SMILES>
COC1C(OC(C(C1O)OC)OC2(C(OC(C(C2OCC(=O)O)OC)O)CO)OC)CO

> <PUBCHEM_OPENEYE_ISO_SMILES>
COC1C(OC(C(C1O)OC)OC2(C(OC(C(C2OCC(=O)O)OC)O)CO)OC)CO

> <PUBCHEM_CACTVS_TPSA>
192

> <PUBCHEM_MONOISOTOPIC_WEIGHT>
472.17920569

> <PUBCHEM_TOTAL_CHARGE>
0

> <PUBCHEM_HEAVY_ATOM_COUNT>
32

> <PUBCHEM_ATOM_DEF_STEREO_COUNT>
0

> <PUBCHEM_ATOM_UDEF_STEREO_COUNT>
10

> <PUBCHEM_BOND_DEF_STEREO_COUNT>
0

> <PUBCHEM_BOND_UDEF_STEREO_COUNT>
0

> <PUBCHEM_ISOTOPIC_ATOM_COUNT>
0

> <PUBCHEM_COMPONENT_COUNT>
1

> <PUBCHEM_CACTVS_TAUTO_COUNT>
-1

> <PUBCHEM_COORDINATE_TYPE>
1
5
255

> <PUBCHEM_BONDANNOTATIONS>
19  1  3
24  10  3
17  25  3
23  26  3
15  4  3
16  5  3
18  6  3
20  7  3
22  8  3
21  9  3

$$$$
