7569008
  -OEChem-04042505422D

 49 50  0     0  0  0  0  0  0999 V2000
    2.5000    1.5000    0.0000 O   0  0  0  0  0  0  0  0  0  0  0  0
    4.2320    1.5000    0.0000 O   0  0  0  0  0  0  0  0  0  0  0  0
    4.2320   -1.5000    0.0000 O   0  0  0  0  0  0  0  0  0  0  0  0
    2.5000   -1.5000    0.0000 O   0  0  0  0  0  0  0  0  0  0  0  0
    3.8660    4.5981    0.0000 O   0  0  0  0  0  0  0  0  0  0  0  0
    2.8660   -4.5981    0.0000 O   0  0  0  0  0  0  0  0  0  0  0  0
    3.3660    0.0000    0.0000 C   0  0  0  0  0  0  0  0  0  0  0  0
    2.5000    0.5000    0.0000 C   0  0  0  0  0  0  0  0  0  0  0  0
    4.2320    0.5000    0.0000 C   0  0  0  0  0  0  0  0  0  0  0  0
    4.2320   -0.5000    0.0000 C   0  0  0  0  0  0  0  0  0  0  0  0
    2.5000   -0.5000    0.0000 C   0  0  0  0  0  0  0  0  0  0  0  0
    3.3660    2.0000    0.0000 C   0  0  0  0  0  0  0  0  0  0  0  0
    3.3660   -2.0000    0.0000 C   0  0  0  0  0  0  0  0  0  0  0  0
    3.8660    2.8660    0.0000 C   0  0  0  0  0  0  0  0  0  0  0  0
    2.8660   -2.8660    0.0000 C   0  0  0  0  0  0  0  0  0  0  0  0
    4.3660    3.7320    0.0000 C   0  0  0  0  0  0  0  0  0  0  0  0
    2.3660   -3.7320    0.0000 C   0  0  0  0  0  0  0  0  0  0  0  0
    4.7320    2.3660    0.0000 C   0  0  0  0  0  0  0  0  0  0  0  0
    3.0000    3.3660    0.0000 C   0  0  0  0  0  0  0  0  0  0  0  0
    2.0000   -2.3660    0.0000 C   0  0  0  0  0  0  0  0  0  0  0  0
    3.7320   -3.3660    0.0000 C   0  0  0  0  0  0  0  0  0  0  0  0
    1.8894    0.6077    0.0000 H   0  0  0  0  0  0  0  0  0  0  0  0
    2.2880   -0.0826    0.0000 H   0  0  0  0  0  0  0  0  0  0  0  0
    4.4441   -0.0826    0.0000 H   0  0  0  0  0  0  0  0  0  0  0  0
    4.8426    0.6077    0.0000 H   0  0  0  0  0  0  0  0  0  0  0  0
    4.8426   -0.6077    0.0000 H   0  0  0  0  0  0  0  0  0  0  0  0
    4.4441    0.0826    0.0000 H   0  0  0  0  0  0  0  0  0  0  0  0
    2.2880    0.0826    0.0000 H   0  0  0  0  0  0  0  0  0  0  0  0
    1.8894   -0.6077    0.0000 H   0  0  0  0  0  0  0  0  0  0  0  0
    3.0560    2.5369    0.0000 H   0  0  0  0  0  0  0  0  0  0  0  0
    3.6760   -2.5369    0.0000 H   0  0  0  0  0  0  0  0  0  0  0  0
    4.8410    3.3335    0.0000 H   0  0  0  0  0  0  0  0  0  0  0  0
    4.8410    4.1306    0.0000 H   0  0  0  0  0  0  0  0  0  0  0  0
    1.8911   -3.3335    0.0000 H   0  0  0  0  0  0  0  0  0  0  0  0
    1.8911   -4.1306    0.0000 H   0  0  0  0  0  0  0  0  0  0  0  0
    4.4220    1.8291    0.0000 H   0  0  0  0  0  0  0  0  0  0  0  0
    5.2690    2.0560    0.0000 H   0  0  0  0  0  0  0  0  0  0  0  0
    5.0420    2.9030    0.0000 H   0  0  0  0  0  0  0  0  0  0  0  0
    3.3100    3.9030    0.0000 H   0  0  0  0  0  0  0  0  0  0  0  0
    2.4631    3.6760    0.0000 H   0  0  0  0  0  0  0  0  0  0  0  0
    2.6900    2.8291    0.0000 H   0  0  0  0  0  0  0  0  0  0  0  0
    2.3100   -1.8291    0.0000 H   0  0  0  0  0  0  0  0  0  0  0  0
    1.4631   -2.0560    0.0000 H   0  0  0  0  0  0  0  0  0  0  0  0
    1.6900   -2.9030    0.0000 H   0  0  0  0  0  0  0  0  0  0  0  0
    3.4220   -3.9030    0.0000 H   0  0  0  0  0  0  0  0  0  0  0  0
    4.2690   -3.6760    0.0000 H   0  0  0  0  0  0  0  0  0  0  0  0
    4.0420   -2.8291    0.0000 H   0  0  0  0  0  0  0  0  0  0  0  0
    4.1760    5.1350    0.0000 H   0  0  0  0  0  0  0  0  0  0  0  0
    2.5560   -5.1350    0.0000 H   0  0  0  0  0  0  0  0  0  0  0  0
  1  8  1  0  0  0  0
  1 12  1  0  0  0  0
  2  9  1  0  0  0  0
  2 12  1  0  0  0  0
  3 10  1  0  0  0  0
  3 13  1  0  0  0  0
  4 11  1  0  0  0  0
  4 13  1  0  0  0  0
  5 16  1  0  0  0  0
  5 48  1  0  0  0  0
  6 17  1  0  0  0  0
  6 49  1  0  0  0  0
  7  8  1  0  0  0  0
  7  9  1  0  0  0  0
  7 10  1  0  0  0  0
  7 11  1  0  0  0  0
  8 22  1  0  0  0  0
  8 23  1  0  0  0  0
  9 24  1  0  0  0  0
  9 25  1  0  0  0  0
 10 26  1  0  0  0  0
 10 27  1  0  0  0  0
 11 28  1  0  0  0  0
 11 29  1  0  0  0  0
 12 14  1  0  0  0  0
 12 30  1  0  0  0  0
 13 15  1  0  0  0  0
 13 31  1  0  0  0  0
 14 16  1  0  0  0  0
 14 18  1  0  0  0  0
 14 19  1  0  0  0  0
 15 17  1  0  0  0  0
 15 20  1  0  0  0  0
 15 21  1  0  0  0  0
 16 32  1  0  0  0  0
 16 33  1  0  0  0  0
 17 34  1  0  0  0  0
 17 35  1  0  0  0  0
 18 36  1  0  0  0  0
 18 37  1  0  0  0  0
 18 38  1  0  0  0  0
 19 39  1  0  0  0  0
 19 40  1  0  0  0  0
 19 41  1  0  0  0  0
 20 42  1  0  0  0  0
 20 43  1  0  0  0  0
 20 44  1  0  0  0  0
 21 45  1  0  0  0  0
 21 46  1  0  0  0  0
 21 47  1  0  0  0  0
M  END
> <PUBCHEM_COMPOUND_CID>
7569008

> <PUBCHEM_COMPOUND_CANONICALIZED>
1

> <PUBCHEM_CACTVS_COMPLEXITY>
301

> <PUBCHEM_CACTVS_HBOND_ACCEPTOR>
6

> <PUBCHEM_CACTVS_HBOND_DONOR>
2

> <PUBCHEM_CACTVS_ROTATABLE_BOND>
4

> <PUBCHEM_CACTVS_SUBSKEYS>
AAADceBwOAAAAAAAAAAAAAAAAAAAAAAAAAAkSAAAAAAAAAAAAAAAGgAACAAADgCwgAMCCAAABgAAAAAAAAAAAAAAAAAAAAAAAAAQEAAAAAAiQAABAAAEAAAAAAAAAAAAAAAAAAAAAAAAAAAAAAAAAAAAAA==

> <PUBCHEM_IUPAC_OPENEYE_NAME>
2-[3-(2-hydroxy-1,1-dimethyl-ethyl)-2,4,8,10-tetraoxaspiro[5.5]undecan-9-yl]-2-methyl-propan-1-ol

> <PUBCHEM_IUPAC_CAS_NAME>
2-[3-(1-hydroxy-2-methylpropan-2-yl)-2,4,8,10-tetraoxaspiro[5.5]undecan-9-yl]-2-methyl-1-propanol

> <PUBCHEM_IUPAC_NAME_MARKUP>
2-[3-(1-hydroxy-2-methylpropan-2-yl)-2,4,8,10-tetraoxaspiro[5.5]undecan-9-yl]-2-methylpropan-1-ol

> <PUBCHEM_IUPAC_NAME>
2-[3-(1-hydroxy-2-methylpropan-2-yl)-2,4,8,10-tetraoxaspiro[5.5]undecan-9-yl]-2-methylpropan-1-ol

> <PUBCHEM_IUPAC_SYSTEMATIC_NAME>
2-methyl-2-[3-(2-methyl-1-oxidanyl-propan-2-yl)-2,4,8,10-tetraoxaspiro[5.5]undecan-9-yl]propan-1-ol

> <PUBCHEM_IUPAC_TRADITIONAL_NAME>
2-[3-(2-hydroxy-1,1-dimethyl-ethyl)-2,4,8,10-tetraoxaspiro[5.5]undecan-9-yl]-2-methyl-propan-1-ol

> <PUBCHEM_IUPAC_INCHI>
InChI=1S/C15H28O6/c1-13(2,5-16)11-18-7-15(8-19-11)9-20-12(21-10-15)14(3,4)6-17/h11-12,16-17H,5-10H2,1-4H3

> <PUBCHEM_IUPAC_INCHIKEY>
BPZIYBJCZRUDEG-UHFFFAOYSA-N

> <PUBCHEM_XLOGP3_AA>
0.6

> <PUBCHEM_EXACT_MASS>
304.18858861

> <PUBCHEM_MOLECULAR_FORMULA>
C15H28O6

> <PUBCHEM_MOLECULAR_WEIGHT>
304.38

> <PUBCHEM_SMILES>
CC(C)(CO)C1OCC2(CO1)COC(OC2)C(C)(C)CO

> <PUBCHEM_OPENEYE_CAN_SMILES>
CC(C)(CO)C1OCC2(CO1)COC(OC2)C(C)(C)CO

> <PUBCHEM_OPENEYE_ISO_SMILES>
CC(C)(CO)C1OCC2(CO1)COC(OC2)C(C)(C)CO

> <PUBCHEM_CACTVS_TPSA>
77.4

> <PUBCHEM_MONOISOTOPIC_WEIGHT>
304.18858861

> <PUBCHEM_TOTAL_CHARGE>
0

> <PUBCHEM_HEAVY_ATOM_COUNT>
21

> <PUBCHEM_ATOM_DEF_STEREO_COUNT>
0

> <PUBCHEM_ATOM_UDEF_STEREO_COUNT>
0

> <PUBCHEM_BOND_DEF_STEREO_COUNT>
0

> <PUBCHEM_BOND_UDEF_STEREO_COUNT>
0

> <PUBCHEM_ISOTOPIC_ATOM_COUNT>
0

> <PUBCHEM_COMPONENT_COUNT>
1

> <PUBCHEM_CACTVS_TAUTO_COUNT>
-1

> <PUBCHEM_COORDINATE_TYPE>
1
5
255

$$$$
