7615
  -OEChem-04042506002D

 52 51  0     1  0  0  0  0  0999 V2000
    2.8660   -2.7500    0.0000 O   0  0  0  0  0  0  0  0  0  0  0  0
    2.0000    1.7500    0.0000 O   0  0  0  0  0  0  0  0  0  0  0  0
    8.0622   -1.7500    0.0000 O   0  0  0  0  0  0  0  0  0  0  0  0
    7.1962    2.7500    0.0000 O   0  0  0  0  0  0  0  0  0  0  0  0
    3.7320   -0.2500    0.0000 N   0  0  0  0  0  0  0  0  0  0  0  0
    6.3301    0.2500    0.0000 N   0  0  0  0  0  0  0  0  0  0  0  0
    4.5981    0.2500    0.0000 C   0  0  0  0  0  0  0  0  0  0  0  0
    5.4641   -0.2500    0.0000 C   0  0  0  0  0  0  0  0  0  0  0  0
    3.7320   -1.2500    0.0000 C   0  0  0  0  0  0  0  0  0  0  0  0
    2.8660    0.2500    0.0000 C   0  0  0  0  0  0  0  0  0  0  0  0
    7.1962   -0.2500    0.0000 C   0  0  0  0  0  0  0  0  0  0  0  0
    6.3301    1.2500    0.0000 C   0  0  0  0  0  0  0  0  0  0  0  0
    2.8660   -1.7500    0.0000 C   0  0  3  0  0  0  0  0  0  0  0  0
    2.8660    1.2500    0.0000 C   0  0  3  0  0  0  0  0  0  0  0  0
    7.1962   -1.2500    0.0000 C   0  0  3  0  0  0  0  0  0  0  0  0
    7.1962    1.7500    0.0000 C   0  0  3  0  0  0  0  0  0  0  0  0
    2.0000   -1.2500    0.0000 C   0  0  0  0  0  0  0  0  0  0  0  0
    3.7320    1.7500    0.0000 C   0  0  0  0  0  0  0  0  0  0  0  0
    6.3301   -1.7500    0.0000 C   0  0  0  0  0  0  0  0  0  0  0  0
    8.0622    1.2500    0.0000 C   0  0  0  0  0  0  0  0  0  0  0  0
    4.9966    0.7249    0.0000 H   0  0  0  0  0  0  0  0  0  0  0  0
    4.1996    0.7249    0.0000 H   0  0  0  0  0  0  0  0  0  0  0  0
    5.0656   -0.7249    0.0000 H   0  0  0  0  0  0  0  0  0  0  0  0
    5.8626   -0.7249    0.0000 H   0  0  0  0  0  0  0  0  0  0  0  0
    3.9441   -1.8326    0.0000 H   0  0  0  0  0  0  0  0  0  0  0  0
    4.3426   -1.1423    0.0000 H   0  0  0  0  0  0  0  0  0  0  0  0
    2.2554    0.3577    0.0000 H   0  0  0  0  0  0  0  0  0  0  0  0
    2.6540   -0.3326    0.0000 H   0  0  0  0  0  0  0  0  0  0  0  0
    7.8067   -0.3577    0.0000 H   0  0  0  0  0  0  0  0  0  0  0  0
    7.4082    0.3326    0.0000 H   0  0  0  0  0  0  0  0  0  0  0  0
    6.1181    1.8326    0.0000 H   0  0  0  0  0  0  0  0  0  0  0  0
    5.7196    1.1423    0.0000 H   0  0  0  0  0  0  0  0  0  0  0  0
    3.4030   -2.0600    0.0000 H   0  0  0  0  0  0  0  0  0  0  0  0
    2.8660    1.8700    0.0000 H   0  0  0  0  0  0  0  0  0  0  0  0
    7.7331   -0.9400    0.0000 H   0  0  0  0  0  0  0  0  0  0  0  0
    6.6592    2.0600    0.0000 H   0  0  0  0  0  0  0  0  0  0  0  0
    2.3100   -0.7131    0.0000 H   0  0  0  0  0  0  0  0  0  0  0  0
    1.4631   -0.9400    0.0000 H   0  0  0  0  0  0  0  0  0  0  0  0
    1.6900   -1.7869    0.0000 H   0  0  0  0  0  0  0  0  0  0  0  0
    4.0420    1.2131    0.0000 H   0  0  0  0  0  0  0  0  0  0  0  0
    4.2690    2.0600    0.0000 H   0  0  0  0  0  0  0  0  0  0  0  0
    3.4220    2.2869    0.0000 H   0  0  0  0  0  0  0  0  0  0  0  0
    6.0201   -1.2131    0.0000 H   0  0  0  0  0  0  0  0  0  0  0  0
    5.7932   -2.0600    0.0000 H   0  0  0  0  0  0  0  0  0  0  0  0
    6.6401   -2.2869    0.0000 H   0  0  0  0  0  0  0  0  0  0  0  0
    7.7522    0.7131    0.0000 H   0  0  0  0  0  0  0  0  0  0  0  0
    8.5991    0.9400    0.0000 H   0  0  0  0  0  0  0  0  0  0  0  0
    8.3722    1.7869    0.0000 H   0  0  0  0  0  0  0  0  0  0  0  0
    2.3291   -3.0600    0.0000 H   0  0  0  0  0  0  0  0  0  0  0  0
    2.0000    2.3700    0.0000 H   0  0  0  0  0  0  0  0  0  0  0  0
    8.0622   -2.3700    0.0000 H   0  0  0  0  0  0  0  0  0  0  0  0
    7.7331    3.0600    0.0000 H   0  0  0  0  0  0  0  0  0  0  0  0
  1 13  1  0  0  0  0
  1 49  1  0  0  0  0
  2 14  1  0  0  0  0
  2 50  1  0  0  0  0
  3 15  1  0  0  0  0
  3 51  1  0  0  0  0
  4 16  1  0  0  0  0
  4 52  1  0  0  0  0
  5  7  1  0  0  0  0
  5  9  1  0  0  0  0
  5 10  1  0  0  0  0
  6  8  1  0  0  0  0
  6 11  1  0  0  0  0
  6 12  1  0  0  0  0
  7  8  1  0  0  0  0
  7 21  1  0  0  0  0
  7 22  1  0  0  0  0
  8 23  1  0  0  0  0
  8 24  1  0  0  0  0
  9 13  1  0  0  0  0
  9 25  1  0  0  0  0
  9 26  1  0  0  0  0
 10 14  1  0  0  0  0
 10 27  1  0  0  0  0
 10 28  1  0  0  0  0
 11 15  1  0  0  0  0
 11 29  1  0  0  0  0
 11 30  1  0  0  0  0
 12 16  1  0  0  0  0
 12 31  1  0  0  0  0
 12 32  1  0  0  0  0
 13 17  1  0  0  0  0
 13 33  1  0  0  0  0
 14 18  1  0  0  0  0
 14 34  1  0  0  0  0
 15 19  1  0  0  0  0
 15 35  1  0  0  0  0
 16 20  1  0  0  0  0
 16 36  1  0  0  0  0
 17 37  1  0  0  0  0
 17 38  1  0  0  0  0
 17 39  1  0  0  0  0
 18 40  1  0  0  0  0
 18 41  1  0  0  0  0
 18 42  1  0  0  0  0
 19 43  1  0  0  0  0
 19 44  1  0  0  0  0
 19 45  1  0  0  0  0
 20 46  1  0  0  0  0
 20 47  1  0  0  0  0
 20 48  1  0  0  0  0
M  END
> <PUBCHEM_COMPOUND_CID>
7615

> <PUBCHEM_COMPOUND_CANONICALIZED>
1

> <PUBCHEM_CACTVS_COMPLEXITY>
199

> <PUBCHEM_CACTVS_HBOND_ACCEPTOR>
6

> <PUBCHEM_CACTVS_HBOND_DONOR>
4

> <PUBCHEM_CACTVS_ROTATABLE_BOND>
11

> <PUBCHEM_CACTVS_SUBSKEYS>
AAADcfBzOAAAAAAAAAAAAAAAAAAAAAAAAAAAAAAAAAAAAAAAAAAAHgAACAAACBThgAYCAAMAAgAAAAAAAAAAAAAAAAAAAAAIAAACUAAAAAAUAAAAAACQAAAAAAAAAAAAAAAAAAAAAAAAAAAAAAAAAAAAAA==

> <PUBCHEM_IUPAC_OPENEYE_NAME>
1-[2-[bis(2-hydroxypropyl)amino]ethyl-(2-hydroxypropyl)amino]propan-2-ol

> <PUBCHEM_IUPAC_CAS_NAME>
1-[2-[bis(2-hydroxypropyl)amino]ethyl-(2-hydroxypropyl)amino]-2-propanol

> <PUBCHEM_IUPAC_NAME_MARKUP>
1-[2-[bis(2-hydroxypropyl)amino]ethyl-(2-hydroxypropyl)amino]propan-2-ol

> <PUBCHEM_IUPAC_NAME>
1-[2-[bis(2-hydroxypropyl)amino]ethyl-(2-hydroxypropyl)amino]propan-2-ol

> <PUBCHEM_IUPAC_SYSTEMATIC_NAME>
1-[2-[bis(2-oxidanylpropyl)amino]ethyl-(2-oxidanylpropyl)amino]propan-2-ol

> <PUBCHEM_IUPAC_TRADITIONAL_NAME>
1-[2-[bis(2-hydroxypropyl)amino]ethyl-(2-hydroxypropyl)amino]propan-2-ol

> <PUBCHEM_IUPAC_INCHI>
InChI=1S/C14H32N2O4/c1-11(17)7-15(8-12(2)18)5-6-16(9-13(3)19)10-14(4)20/h11-14,17-20H,5-10H2,1-4H3

> <PUBCHEM_IUPAC_INCHIKEY>
NSOXQYCFHDMMGV-UHFFFAOYSA-N

> <PUBCHEM_XLOGP3_AA>
-0.7

> <PUBCHEM_EXACT_MASS>
292.23620751

> <PUBCHEM_MOLECULAR_FORMULA>
C14H32N2O4

> <PUBCHEM_MOLECULAR_WEIGHT>
292.41

> <PUBCHEM_SMILES>
CC(CN(CCN(CC(C)O)CC(C)O)CC(C)O)O

> <PUBCHEM_OPENEYE_CAN_SMILES>
CC(CN(CCN(CC(C)O)CC(C)O)CC(C)O)O

> <PUBCHEM_OPENEYE_ISO_SMILES>
CC(CN(CCN(CC(C)O)CC(C)O)CC(C)O)O

> <PUBCHEM_CACTVS_TPSA>
87.4

> <PUBCHEM_MONOISOTOPIC_WEIGHT>
292.23620751

> <PUBCHEM_TOTAL_CHARGE>
0

> <PUBCHEM_HEAVY_ATOM_COUNT>
20

> <PUBCHEM_ATOM_DEF_STEREO_COUNT>
0

> <PUBCHEM_ATOM_UDEF_STEREO_COUNT>
4

> <PUBCHEM_BOND_DEF_STEREO_COUNT>
0

> <PUBCHEM_BOND_UDEF_STEREO_COUNT>
0

> <PUBCHEM_ISOTOPIC_ATOM_COUNT>
0

> <PUBCHEM_COMPONENT_COUNT>
1

> <PUBCHEM_CACTVS_TAUTO_COUNT>
-1

> <PUBCHEM_COORDINATE_TYPE>
1
5
255

> <PUBCHEM_BONDANNOTATIONS>
13  1  3
14  2  3
15  3  3
16  4  3

$$$$
