76375
  -OEChem-04042512322D

 77 75  0     0  0  0  0  0  0999 V2000
    9.3802    0.0000    0.0000 Cl  0  5  0  0  0  0  0  0  0  0  0  0
    2.6350    6.5010    0.0000 O   0  0  0  0  0  0  0  0  0  0  0  0
    0.5369    3.4030    0.0000 O   0  0  0  0  0  0  0  0  0  0  0  0
    3.1350    3.9030    0.0000 N   0  3  0  0  0  0  0  0  0  0  0  0
    4.0010    4.4030    0.0000 C   0  0  0  0  0  0  0  0  0  0  0  0
    2.6350    4.7690    0.0000 C   0  0  0  0  0  0  0  0  0  0  0  0
    2.2690    3.4030    0.0000 C   0  0  0  0  0  0  0  0  0  0  0  0
    4.8671    3.9030    0.0000 C   0  0  0  0  0  0  0  0  0  0  0  0
    3.6350    3.0369    0.0000 C   0  0  0  0  0  0  0  0  0  0  0  0
    5.7331    4.4030    0.0000 C   0  0  0  0  0  0  0  0  0  0  0  0
    6.5991    3.9030    0.0000 C   0  0  0  0  0  0  0  0  0  0  0  0
    3.1350    5.6350    0.0000 C   0  0  0  0  0  0  0  0  0  0  0  0
    1.4030    3.9030    0.0000 C   0  0  0  0  0  0  0  0  0  0  0  0
    7.4651    4.4030    0.0000 C   0  0  0  0  0  0  0  0  0  0  0  0
    8.3312    3.9030    0.0000 C   0  0  0  0  0  0  0  0  0  0  0  0
    9.1972    4.4030    0.0000 C   0  0  0  0  0  0  0  0  0  0  0  0
   10.0632    3.9030    0.0000 C   0  0  0  0  0  0  0  0  0  0  0  0
   10.9292    4.4030    0.0000 C   0  0  0  0  0  0  0  0  0  0  0  0
   11.7953    3.9030    0.0000 C   0  0  0  0  0  0  0  0  0  0  0  0
   12.6613    4.4030    0.0000 C   0  0  0  0  0  0  0  0  0  0  0  0
   13.5273    3.9030    0.0000 C   0  0  0  0  0  0  0  0  0  0  0  0
   14.3933    4.4030    0.0000 C   0  0  0  0  0  0  0  0  0  0  0  0
   15.2594    3.9030    0.0000 C   0  0  0  0  0  0  0  0  0  0  0  0
   16.1254    4.4030    0.0000 C   0  0  0  0  0  0  0  0  0  0  0  0
   16.9914    3.9030    0.0000 C   0  0  0  0  0  0  0  0  0  0  0  0
   17.8574    4.4030    0.0000 C   0  0  0  0  0  0  0  0  0  0  0  0
   18.7235    3.9030    0.0000 C   0  0  0  0  0  0  0  0  0  0  0  0
    4.3996    4.8779    0.0000 H   0  0  0  0  0  0  0  0  0  0  0  0
    3.6025    4.8779    0.0000 H   0  0  0  0  0  0  0  0  0  0  0  0
    2.1601    5.1675    0.0000 H   0  0  0  0  0  0  0  0  0  0  0  0
    2.1601    4.3705    0.0000 H   0  0  0  0  0  0  0  0  0  0  0  0
    1.8705    2.9280    0.0000 H   0  0  0  0  0  0  0  0  0  0  0  0
    2.6675    2.9280    0.0000 H   0  0  0  0  0  0  0  0  0  0  0  0
    4.4685    3.4280    0.0000 H   0  0  0  0  0  0  0  0  0  0  0  0
    5.2656    3.4280    0.0000 H   0  0  0  0  0  0  0  0  0  0  0  0
    3.0981    2.7269    0.0000 H   0  0  0  0  0  0  0  0  0  0  0  0
    3.9450    2.5000    0.0000 H   0  0  0  0  0  0  0  0  0  0  0  0
    4.1720    3.3469    0.0000 H   0  0  0  0  0  0  0  0  0  0  0  0
    6.1316    4.8779    0.0000 H   0  0  0  0  0  0  0  0  0  0  0  0
    5.3346    4.8779    0.0000 H   0  0  0  0  0  0  0  0  0  0  0  0
    6.2006    3.4280    0.0000 H   0  0  0  0  0  0  0  0  0  0  0  0
    6.9976    3.4280    0.0000 H   0  0  0  0  0  0  0  0  0  0  0  0
    3.6100    5.2365    0.0000 H   0  0  0  0  0  0  0  0  0  0  0  0
    3.6100    6.0335    0.0000 H   0  0  0  0  0  0  0  0  0  0  0  0
    1.8015    4.3779    0.0000 H   0  0  0  0  0  0  0  0  0  0  0  0
    1.0044    4.3779    0.0000 H   0  0  0  0  0  0  0  0  0  0  0  0
    7.8637    4.8779    0.0000 H   0  0  0  0  0  0  0  0  0  0  0  0
    7.0666    4.8779    0.0000 H   0  0  0  0  0  0  0  0  0  0  0  0
    7.9326    3.4280    0.0000 H   0  0  0  0  0  0  0  0  0  0  0  0
    8.7297    3.4280    0.0000 H   0  0  0  0  0  0  0  0  0  0  0  0
    9.5957    4.8779    0.0000 H   0  0  0  0  0  0  0  0  0  0  0  0
    8.7987    4.8779    0.0000 H   0  0  0  0  0  0  0  0  0  0  0  0
    9.6647    3.4280    0.0000 H   0  0  0  0  0  0  0  0  0  0  0  0
   10.4617    3.4280    0.0000 H   0  0  0  0  0  0  0  0  0  0  0  0
   11.3278    4.8779    0.0000 H   0  0  0  0  0  0  0  0  0  0  0  0
   10.5307    4.8779    0.0000 H   0  0  0  0  0  0  0  0  0  0  0  0
   11.3967    3.4280    0.0000 H   0  0  0  0  0  0  0  0  0  0  0  0
   12.1938    3.4280    0.0000 H   0  0  0  0  0  0  0  0  0  0  0  0
   13.0598    4.8779    0.0000 H   0  0  0  0  0  0  0  0  0  0  0  0
   12.2628    4.8779    0.0000 H   0  0  0  0  0  0  0  0  0  0  0  0
   13.1288    3.4280    0.0000 H   0  0  0  0  0  0  0  0  0  0  0  0
   13.9258    3.4280    0.0000 H   0  0  0  0  0  0  0  0  0  0  0  0
   14.7919    4.8779    0.0000 H   0  0  0  0  0  0  0  0  0  0  0  0
   13.9948    4.8779    0.0000 H   0  0  0  0  0  0  0  0  0  0  0  0
    2.9450    7.0380    0.0000 H   0  0  0  0  0  0  0  0  0  0  0  0
    0.0000    3.7130    0.0000 H   0  0  0  0  0  0  0  0  0  0  0  0
   14.8608    3.4280    0.0000 H   0  0  0  0  0  0  0  0  0  0  0  0
   15.6579    3.4280    0.0000 H   0  0  0  0  0  0  0  0  0  0  0  0
   16.5239    4.8779    0.0000 H   0  0  0  0  0  0  0  0  0  0  0  0
   15.7269    4.8779    0.0000 H   0  0  0  0  0  0  0  0  0  0  0  0
   16.5929    3.4280    0.0000 H   0  0  0  0  0  0  0  0  0  0  0  0
   17.3899    3.4280    0.0000 H   0  0  0  0  0  0  0  0  0  0  0  0
   18.2560    4.8779    0.0000 H   0  0  0  0  0  0  0  0  0  0  0  0
   17.4589    4.8779    0.0000 H   0  0  0  0  0  0  0  0  0  0  0  0
   18.4135    3.3660    0.0000 H   0  0  0  0  0  0  0  0  0  0  0  0
   19.2604    3.5930    0.0000 H   0  0  0  0  0  0  0  0  0  0  0  0
   19.0335    4.4399    0.0000 H   0  0  0  0  0  0  0  0  0  0  0  0
  2 12  1  0  0  0  0
  2 65  1  0  0  0  0
  3 13  1  0  0  0  0
  3 66  1  0  0  0  0
  4  5  1  0  0  0  0
  4  6  1  0  0  0  0
  4  7  1  0  0  0  0
  4  9  1  0  0  0  0
  5  8  1  0  0  0  0
  5 28  1  0  0  0  0
  5 29  1  0  0  0  0
  6 12  1  0  0  0  0
  6 30  1  0  0  0  0
  6 31  1  0  0  0  0
  7 13  1  0  0  0  0
  7 32  1  0  0  0  0
  7 33  1  0  0  0  0
  8 10  1  0  0  0  0
  8 34  1  0  0  0  0
  8 35  1  0  0  0  0
  9 36  1  0  0  0  0
  9 37  1  0  0  0  0
  9 38  1  0  0  0  0
 10 11  1  0  0  0  0
 10 39  1  0  0  0  0
 10 40  1  0  0  0  0
 11 14  1  0  0  0  0
 11 41  1  0  0  0  0
 11 42  1  0  0  0  0
 12 43  1  0  0  0  0
 12 44  1  0  0  0  0
 13 45  1  0  0  0  0
 13 46  1  0  0  0  0
 14 15  1  0  0  0  0
 14 47  1  0  0  0  0
 14 48  1  0  0  0  0
 15 16  1  0  0  0  0
 15 49  1  0  0  0  0
 15 50  1  0  0  0  0
 16 17  1  0  0  0  0
 16 51  1  0  0  0  0
 16 52  1  0  0  0  0
 17 18  1  0  0  0  0
 17 53  1  0  0  0  0
 17 54  1  0  0  0  0
 18 19  1  0  0  0  0
 18 55  1  0  0  0  0
 18 56  1  0  0  0  0
 19 20  1  0  0  0  0
 19 57  1  0  0  0  0
 19 58  1  0  0  0  0
 20 21  1  0  0  0  0
 20 59  1  0  0  0  0
 20 60  1  0  0  0  0
 21 22  1  0  0  0  0
 21 61  1  0  0  0  0
 21 62  1  0  0  0  0
 22 23  1  0  0  0  0
 22 63  1  0  0  0  0
 22 64  1  0  0  0  0
 23 24  1  0  0  0  0
 23 67  1  0  0  0  0
 23 68  1  0  0  0  0
 24 25  1  0  0  0  0
 24 69  1  0  0  0  0
 24 70  1  0  0  0  0
 25 26  1  0  0  0  0
 25 71  1  0  0  0  0
 25 72  1  0  0  0  0
 26 27  1  0  0  0  0
 26 73  1  0  0  0  0
 26 74  1  0  0  0  0
 27 75  1  0  0  0  0
 27 76  1  0  0  0  0
 27 77  1  0  0  0  0
M  CHG  2   1  -1   4   1
M  END
> <PUBCHEM_COMPOUND_CID>
76375

> <PUBCHEM_COMPOUND_CANONICALIZED>
1

> <PUBCHEM_CACTVS_COMPLEXITY>
265

> <PUBCHEM_CACTVS_HBOND_ACCEPTOR>
3

> <PUBCHEM_CACTVS_HBOND_DONOR>
2

> <PUBCHEM_CACTVS_ROTATABLE_BOND>
21

> <PUBCHEM_CACTVS_SUBSKEYS>
AAADcfB6MAAEAAAAAAAAAAAAAAAAAAAAAAAAAAAAAAAAAAAAAAAAHgAACAAACADhgAYCAAMAAgAAAAAAAAAAAAAAAAAAAAAIAAACEAIAgAAEAAAAAACQAAEQgIAAAAAAAAAAAAAAAAAAAAAAAAAAAAAAAA==

> <PUBCHEM_IUPAC_OPENEYE_NAME>
bis(2-hydroxyethyl)-methyl-octadecyl-ammonium;chloride

> <PUBCHEM_IUPAC_CAS_NAME>
bis(2-hydroxyethyl)-methyl-octadecylammonium;chloride

> <PUBCHEM_IUPAC_NAME_MARKUP>
bis(2-hydroxyethyl)-methyl-octadecylazanium;chloride

> <PUBCHEM_IUPAC_NAME>
bis(2-hydroxyethyl)-methyl-octadecylazanium;chloride

> <PUBCHEM_IUPAC_SYSTEMATIC_NAME>
bis(2-hydroxyethyl)-methyl-octadecyl-azanium;chloride

> <PUBCHEM_IUPAC_TRADITIONAL_NAME>
bis(2-hydroxyethyl)-methyl-stearyl-ammonium;chloride

> <PUBCHEM_IUPAC_INCHI>
InChI=1S/C23H50NO2.ClH/c1-3-4-5-6-7-8-9-10-11-12-13-14-15-16-17-18-19-24(2,20-22-25)21-23-26;/h25-26H,3-23H2,1-2H3;1H/q+1;/p-1

> <PUBCHEM_IUPAC_INCHIKEY>
SUZSZZWHCFLFSP-UHFFFAOYSA-M

> <PUBCHEM_EXACT_MASS>
407.3530075

> <PUBCHEM_MOLECULAR_FORMULA>
C23H50ClNO2

> <PUBCHEM_MOLECULAR_WEIGHT>
408.1

> <PUBCHEM_SMILES>
CCCCCCCCCCCCCCCCCC[N+](C)(CCO)CCO.[Cl-]

> <PUBCHEM_OPENEYE_CAN_SMILES>
CCCCCCCCCCCCCCCCCC[N+](C)(CCO)CCO.[Cl-]

> <PUBCHEM_OPENEYE_ISO_SMILES>
CCCCCCCCCCCCCCCCCC[N+](C)(CCO)CCO.[Cl-]

> <PUBCHEM_CACTVS_TPSA>
40.5

> <PUBCHEM_MONOISOTOPIC_WEIGHT>
407.3530075

> <PUBCHEM_TOTAL_CHARGE>
0

> <PUBCHEM_HEAVY_ATOM_COUNT>
27

> <PUBCHEM_ATOM_DEF_STEREO_COUNT>
0

> <PUBCHEM_ATOM_UDEF_STEREO_COUNT>
0

> <PUBCHEM_BOND_DEF_STEREO_COUNT>
0

> <PUBCHEM_BOND_UDEF_STEREO_COUNT>
0

> <PUBCHEM_ISOTOPIC_ATOM_COUNT>
0

> <PUBCHEM_COMPONENT_COUNT>
2

> <PUBCHEM_CACTVS_TAUTO_COUNT>
-1

> <PUBCHEM_COORDINATE_TYPE>
1
5
255

$$$$
