76529
  -OEChem-04042512222D

 36 40  0     0  0  0  0  0  0999 V2000
    2.9554   -2.0777    0.0000 Cl  0  0  0  0  0  0  0  0  0  0  0  0
   10.1266    2.0777    0.0000 Cl  0  0  0  0  0  0  0  0  0  0  0  0
    4.7926    2.0346    0.0000 O   0  0  0  0  0  0  0  0  0  0  0  0
    8.2894   -2.0346    0.0000 O   0  0  0  0  0  0  0  0  0  0  0  0
    4.7810   -1.0347    0.0000 N   0  0  0  0  0  0  0  0  0  0  0  0
    8.3010    1.0347    0.0000 N   0  0  0  0  0  0  0  0  0  0  0  0
    5.6750   -0.5000    0.0000 C   0  0  0  0  0  0  0  0  0  0  0  0
    7.4070    0.5000    0.0000 C   0  0  0  0  0  0  0  0  0  0  0  0
    5.6750    0.5000    0.0000 C   0  0  0  0  0  0  0  0  0  0  0  0
    7.4070   -0.5000    0.0000 C   0  0  0  0  0  0  0  0  0  0  0  0
    6.5410   -1.0000    0.0000 C   0  0  0  0  0  0  0  0  0  0  0  0
    6.5410    1.0000    0.0000 C   0  0  0  0  0  0  0  0  0  0  0  0
    3.8749   -0.5208    0.0000 C   0  0  0  0  0  0  0  0  0  0  0  0
    9.2070    0.5208    0.0000 C   0  0  0  0  0  0  0  0  0  0  0  0
    3.8749    0.5208    0.0000 C   0  0  0  0  0  0  0  0  0  0  0  0
    9.2070   -0.5208    0.0000 C   0  0  0  0  0  0  0  0  0  0  0  0
    4.7810    1.0347    0.0000 C   0  0  0  0  0  0  0  0  0  0  0  0
    8.3010   -1.0347    0.0000 C   0  0  0  0  0  0  0  0  0  0  0  0
    2.9438   -1.0777    0.0000 C   0  0  0  0  0  0  0  0  0  0  0  0
   10.1382    1.0777    0.0000 C   0  0  0  0  0  0  0  0  0  0  0  0
    2.9438    1.0777    0.0000 C   0  0  0  0  0  0  0  0  0  0  0  0
   10.1382   -1.0777    0.0000 C   0  0  0  0  0  0  0  0  0  0  0  0
    2.0000   -0.5425    0.0000 C   0  0  0  0  0  0  0  0  0  0  0  0
   11.0820    0.5425    0.0000 C   0  0  0  0  0  0  0  0  0  0  0  0
    2.0000    0.5425    0.0000 C   0  0  0  0  0  0  0  0  0  0  0  0
   11.0820   -0.5425    0.0000 C   0  0  0  0  0  0  0  0  0  0  0  0
    6.5410   -1.6200    0.0000 H   0  0  0  0  0  0  0  0  0  0  0  0
    6.5410    1.6200    0.0000 H   0  0  0  0  0  0  0  0  0  0  0  0
    4.7882   -1.6546    0.0000 H   0  0  0  0  0  0  0  0  0  0  0  0
    8.2938    1.6546    0.0000 H   0  0  0  0  0  0  0  0  0  0  0  0
    2.9510    1.6977    0.0000 H   0  0  0  0  0  0  0  0  0  0  0  0
   10.1310   -1.6977    0.0000 H   0  0  0  0  0  0  0  0  0  0  0  0
    1.4643   -0.8546    0.0000 H   0  0  0  0  0  0  0  0  0  0  0  0
   11.6177    0.8546    0.0000 H   0  0  0  0  0  0  0  0  0  0  0  0
    1.4643    0.8546    0.0000 H   0  0  0  0  0  0  0  0  0  0  0  0
   11.6177   -0.8546    0.0000 H   0  0  0  0  0  0  0  0  0  0  0  0
  1 19  1  0  0  0  0
  2 20  1  0  0  0  0
  3 17  2  0  0  0  0
  4 18  2  0  0  0  0
  5  7  1  0  0  0  0
  5 13  1  0  0  0  0
  5 29  1  0  0  0  0
  6  8  1  0  0  0  0
  6 14  1  0  0  0  0
  6 30  1  0  0  0  0
  7  9  2  0  0  0  0
  7 11  1  0  0  0  0
  8 10  1  0  0  0  0
  8 12  2  0  0  0  0
  9 12  1  0  0  0  0
  9 17  1  0  0  0  0
 10 11  2  0  0  0  0
 10 18  1  0  0  0  0
 11 27  1  0  0  0  0
 12 28  1  0  0  0  0
 13 15  2  0  0  0  0
 13 19  1  0  0  0  0
 14 16  2  0  0  0  0
 14 20  1  0  0  0  0
 15 17  1  0  0  0  0
 15 21  1  0  0  0  0
 16 18  1  0  0  0  0
 16 22  1  0  0  0  0
 19 23  2  0  0  0  0
 20 24  2  0  0  0  0
 21 25  2  0  0  0  0
 21 31  1  0  0  0  0
 22 26  2  0  0  0  0
 22 32  1  0  0  0  0
 23 25  1  0  0  0  0
 23 33  1  0  0  0  0
 24 26  1  0  0  0  0
 24 34  1  0  0  0  0
 25 35  1  0  0  0  0
 26 36  1  0  0  0  0
M  END
> <PUBCHEM_COMPOUND_CID>
76529

> <PUBCHEM_COMPOUND_CANONICALIZED>
1

> <PUBCHEM_CACTVS_COMPLEXITY>
563

> <PUBCHEM_CACTVS_HBOND_ACCEPTOR>
4

> <PUBCHEM_CACTVS_HBOND_DONOR>
2

> <PUBCHEM_CACTVS_ROTATABLE_BOND>
0

> <PUBCHEM_CACTVS_SUBSKEYS>
AAADccB7MAAGAAAAAAAAAAAAAAAAAAAAAAA8eMECAAAAAACxUAAAHgIQAAAADA6BmCAwwILAAACIAqRSQACCAAAlBwAIiAEAZsgIIHrBl5HEIYhgkADIyccciMCOQACAYAACABCAAQDAAAQAIAAAAAAAAA==

> <PUBCHEM_IUPAC_OPENEYE_NAME>
4,11-dichloro-5,12-dihydroquinolino[2,3-b]acridine-7,14-dione

> <PUBCHEM_IUPAC_CAS_NAME>
4,11-dichloro-5,12-dihydroquinolino[2,3-b]acridine-7,14-dione

> <PUBCHEM_IUPAC_NAME_MARKUP>
4,11-dichloro-5,12-dihydroquinolino[2,3-b]acridine-7,14-dione

> <PUBCHEM_IUPAC_NAME>
4,11-dichloro-5,12-dihydroquinolino[2,3-b]acridine-7,14-dione

> <PUBCHEM_IUPAC_SYSTEMATIC_NAME>
4,11-bis(chloranyl)-5,12-dihydroquinolino[2,3-b]acridine-7,14-dione

> <PUBCHEM_IUPAC_TRADITIONAL_NAME>
4,11-dichloro-5,12-dihydroquinolin[2,3-b]acridine-7,14-quinone

> <PUBCHEM_IUPAC_INCHI>
InChI=1S/C20H10Cl2N2O2/c21-13-5-1-3-9-17(13)23-15-8-12-16(7-11(15)19(9)25)24-18-10(20(12)26)4-2-6-14(18)22/h1-8H,(H,23,25)(H,24,26)

> <PUBCHEM_IUPAC_INCHIKEY>
BFEJTCHFLJECJN-UHFFFAOYSA-N

> <PUBCHEM_XLOGP3_AA>
5.3

> <PUBCHEM_EXACT_MASS>
380.0119330

> <PUBCHEM_MOLECULAR_FORMULA>
C20H10Cl2N2O2

> <PUBCHEM_MOLECULAR_WEIGHT>
381.2

> <PUBCHEM_SMILES>
C1=CC2=C(C(=C1)Cl)NC3=CC4=C(C=C3C2=O)NC5=C(C4=O)C=CC=C5Cl

> <PUBCHEM_OPENEYE_CAN_SMILES>
C1=CC2=C(C(=C1)Cl)NC3=CC4=C(C=C3C2=O)NC5=C(C4=O)C=CC=C5Cl

> <PUBCHEM_OPENEYE_ISO_SMILES>
C1=CC2=C(C(=C1)Cl)NC3=CC4=C(C=C3C2=O)NC5=C(C4=O)C=CC=C5Cl

> <PUBCHEM_CACTVS_TPSA>
58.2

> <PUBCHEM_MONOISOTOPIC_WEIGHT>
380.0119330

> <PUBCHEM_TOTAL_CHARGE>
0

> <PUBCHEM_HEAVY_ATOM_COUNT>
26

> <PUBCHEM_ATOM_DEF_STEREO_COUNT>
0

> <PUBCHEM_ATOM_UDEF_STEREO_COUNT>
0

> <PUBCHEM_BOND_DEF_STEREO_COUNT>
0

> <PUBCHEM_BOND_UDEF_STEREO_COUNT>
0

> <PUBCHEM_ISOTOPIC_ATOM_COUNT>
0

> <PUBCHEM_COMPONENT_COUNT>
1

> <PUBCHEM_CACTVS_TAUTO_COUNT>
-1

> <PUBCHEM_COORDINATE_TYPE>
1
5
255

> <PUBCHEM_BONDANNOTATIONS>
10  11  8
10  18  8
13  15  8
13  19  8
14  16  8
14  20  8
15  17  8
15  21  8
16  18  8
16  22  8
19  23  8
20  24  8
21  25  8
22  26  8
23  25  8
24  26  8
5  13  8
5  7  8
6  14  8
6  8  8
7  11  8
7  9  8
8  10  8
8  12  8
9  12  8
9  17  8

$$$$
