7837
  -OEChem-04042505582D

 20 20  0     1  0  0  0  0  0999 V2000
    5.0981   -2.1830    0.0000 O   0  0  0  0  0  0  0  0  0  0  0  0
    3.7320    0.1830    0.0000 O   0  0  0  0  0  0  0  0  0  0  0  0
    2.0000    0.1830    0.0000 O   0  0  0  0  0  0  0  0  0  0  0  0
    4.5981   -1.3170    0.0000 C   0  0  3  0  0  0  0  0  0  0  0  0
    5.5981   -1.3170    0.0000 C   0  0  0  0  0  0  0  0  0  0  0  0
    3.7320   -0.8170    0.0000 C   0  0  0  0  0  0  0  0  0  0  0  0
    2.8660    0.6830    0.0000 C   0  0  0  0  0  0  0  0  0  0  0  0
    2.8660    1.6830    0.0000 C   0  0  0  0  0  0  0  0  0  0  0  0
    2.0000    2.1830    0.0000 C   0  0  0  0  0  0  0  0  0  0  0  0
    3.7320    2.1830    0.0000 C   0  0  0  0  0  0  0  0  0  0  0  0
    4.1597   -1.7554    0.0000 H   0  0  0  0  0  0  0  0  0  0  0  0
    6.1807   -1.5290    0.0000 H   0  0  0  0  0  0  0  0  0  0  0  0
    5.7057   -0.7064    0.0000 H   0  0  0  0  0  0  0  0  0  0  0  0
    3.1215   -0.7093    0.0000 H   0  0  0  0  0  0  0  0  0  0  0  0
    3.5200   -1.3996    0.0000 H   0  0  0  0  0  0  0  0  0  0  0  0
    2.3100    2.7200    0.0000 H   0  0  0  0  0  0  0  0  0  0  0  0
    1.4631    2.4930    0.0000 H   0  0  0  0  0  0  0  0  0  0  0  0
    1.6900    1.6461    0.0000 H   0  0  0  0  0  0  0  0  0  0  0  0
    4.2690    1.8730    0.0000 H   0  0  0  0  0  0  0  0  0  0  0  0
    3.7320    2.8030    0.0000 H   0  0  0  0  0  0  0  0  0  0  0  0
  1  4  1  0  0  0  0
  1  5  1  0  0  0  0
  2  6  1  0  0  0  0
  2  7  1  0  0  0  0
  3  7  2  0  0  0  0
  4  5  1  0  0  0  0
  4  6  1  0  0  0  0
  4 11  1  0  0  0  0
  5 12  1  0  0  0  0
  5 13  1  0  0  0  0
  6 14  1  0  0  0  0
  6 15  1  0  0  0  0
  7  8  1  0  0  0  0
  8  9  1  0  0  0  0
  8 10  2  0  0  0  0
  9 16  1  0  0  0  0
  9 17  1  0  0  0  0
  9 18  1  0  0  0  0
 10 19  1  0  0  0  0
 10 20  1  0  0  0  0
M  END
> <PUBCHEM_COMPOUND_CID>
7837

> <PUBCHEM_COMPOUND_CANONICALIZED>
1

> <PUBCHEM_CACTVS_COMPLEXITY>
162

> <PUBCHEM_CACTVS_HBOND_ACCEPTOR>
3

> <PUBCHEM_CACTVS_HBOND_DONOR>
0

> <PUBCHEM_CACTVS_ROTATABLE_BOND>
4

> <PUBCHEM_CACTVS_SUBSKEYS>
AAADccBgMAAAAAAAAAAAAAAAEgAAAAAAAAAAAAAAAAAAAAAAAAAAGgAAAAAADBSggAICCAAABACIAgDSCAAAAAAAAAAAAAEAAEABBAAAIQACAAABAAACIIAAAAAAAAAAAAAAAAAAAAAAAAAAAAAAAAAAAA==

> <PUBCHEM_IUPAC_OPENEYE_NAME>
oxiran-2-ylmethyl 2-methylprop-2-enoate

> <PUBCHEM_IUPAC_CAS_NAME>
2-methyl-2-propenoic acid 2-oxiranylmethyl ester

> <PUBCHEM_IUPAC_NAME_MARKUP>
oxiran-2-ylmethyl 2-methylprop-2-enoate

> <PUBCHEM_IUPAC_NAME>
oxiran-2-ylmethyl 2-methylprop-2-enoate

> <PUBCHEM_IUPAC_SYSTEMATIC_NAME>
oxiran-2-ylmethyl 2-methylprop-2-enoate

> <PUBCHEM_IUPAC_TRADITIONAL_NAME>
2-methylacrylic acid glycidyl ester

> <PUBCHEM_IUPAC_INCHI>
InChI=1S/C7H10O3/c1-5(2)7(8)10-4-6-3-9-6/h6H,1,3-4H2,2H3

> <PUBCHEM_IUPAC_INCHIKEY>
VOZRXNHHFUQHIL-UHFFFAOYSA-N

> <PUBCHEM_XLOGP3_AA>
0.8

> <PUBCHEM_EXACT_MASS>
142.062994177

> <PUBCHEM_MOLECULAR_FORMULA>
C7H10O3

> <PUBCHEM_MOLECULAR_WEIGHT>
142.15

> <PUBCHEM_SMILES>
CC(=C)C(=O)OCC1CO1

> <PUBCHEM_OPENEYE_CAN_SMILES>
CC(=C)C(=O)OCC1CO1

> <PUBCHEM_OPENEYE_ISO_SMILES>
CC(=C)C(=O)OCC1CO1

> <PUBCHEM_CACTVS_TPSA>
38.8

> <PUBCHEM_MONOISOTOPIC_WEIGHT>
142.062994177

> <PUBCHEM_TOTAL_CHARGE>
0

> <PUBCHEM_HEAVY_ATOM_COUNT>
10

> <PUBCHEM_ATOM_DEF_STEREO_COUNT>
0

> <PUBCHEM_ATOM_UDEF_STEREO_COUNT>
1

> <PUBCHEM_BOND_DEF_STEREO_COUNT>
0

> <PUBCHEM_BOND_UDEF_STEREO_COUNT>
0

> <PUBCHEM_ISOTOPIC_ATOM_COUNT>
0

> <PUBCHEM_COMPONENT_COUNT>
1

> <PUBCHEM_CACTVS_TAUTO_COUNT>
-1

> <PUBCHEM_COORDINATE_TYPE>
1
5
255

> <PUBCHEM_BONDANNOTATIONS>
4  6  3

$$$$
