78452
  -OEChem-04042506002D

 31 30  0     0  0  0  0  0  0999 V2000
    3.4030   -0.2685    0.0000 P   0  0  0  0  0  0  0  0  0  0  0  0
    2.5369   -0.7685    0.0000 O   0  0  0  0  0  0  0  0  0  0  0  0
    2.9030    0.5976    0.0000 O   0  0  0  0  0  0  0  0  0  0  0  0
    3.9030   -1.1345    0.0000 O   0  0  0  0  0  0  0  0  0  0  0  0
    6.8671   -0.2685    0.0000 C   0  0  0  0  0  0  0  0  0  0  0  0
    6.0010    0.2315    0.0000 C   0  0  0  0  0  0  0  0  0  0  0  0
    7.7331    0.2315    0.0000 C   0  0  0  0  0  0  0  0  0  0  0  0
    5.1350   -0.2685    0.0000 C   0  0  0  0  0  0  0  0  0  0  0  0
    8.5991   -0.2685    0.0000 C   0  0  0  0  0  0  0  0  0  0  0  0
    4.2690    0.2315    0.0000 C   0  0  0  0  0  0  0  0  0  0  0  0
    9.4651    0.2315    0.0000 C   0  0  0  0  0  0  0  0  0  0  0  0
   10.3312   -0.2685    0.0000 C   0  0  0  0  0  0  0  0  0  0  0  0
    6.4685   -0.7434    0.0000 H   0  0  0  0  0  0  0  0  0  0  0  0
    7.2656   -0.7434    0.0000 H   0  0  0  0  0  0  0  0  0  0  0  0
    6.3996    0.7065    0.0000 H   0  0  0  0  0  0  0  0  0  0  0  0
    5.6025    0.7065    0.0000 H   0  0  0  0  0  0  0  0  0  0  0  0
    8.1316    0.7065    0.0000 H   0  0  0  0  0  0  0  0  0  0  0  0
    7.3346    0.7065    0.0000 H   0  0  0  0  0  0  0  0  0  0  0  0
    4.7365   -0.7434    0.0000 H   0  0  0  0  0  0  0  0  0  0  0  0
    5.5335   -0.7434    0.0000 H   0  0  0  0  0  0  0  0  0  0  0  0
    8.2006   -0.7434    0.0000 H   0  0  0  0  0  0  0  0  0  0  0  0
    8.9976   -0.7434    0.0000 H   0  0  0  0  0  0  0  0  0  0  0  0
    4.6675    0.7065    0.0000 H   0  0  0  0  0  0  0  0  0  0  0  0
    3.8705    0.7065    0.0000 H   0  0  0  0  0  0  0  0  0  0  0  0
    9.8637    0.7065    0.0000 H   0  0  0  0  0  0  0  0  0  0  0  0
    9.0666    0.7065    0.0000 H   0  0  0  0  0  0  0  0  0  0  0  0
   10.0212   -0.8054    0.0000 H   0  0  0  0  0  0  0  0  0  0  0  0
   10.8681   -0.5785    0.0000 H   0  0  0  0  0  0  0  0  0  0  0  0
   10.6412    0.2685    0.0000 H   0  0  0  0  0  0  0  0  0  0  0  0
    2.0000   -0.4585    0.0000 H   0  0  0  0  0  0  0  0  0  0  0  0
    3.2130    1.1345    0.0000 H   0  0  0  0  0  0  0  0  0  0  0  0
  1  2  1  0  0  0  0
  1  3  1  0  0  0  0
  1  4  2  0  0  0  0
  1 10  1  0  0  0  0
  2 30  1  0  0  0  0
  3 31  1  0  0  0  0
  5  6  1  0  0  0  0
  5  7  1  0  0  0  0
  5 13  1  0  0  0  0
  5 14  1  0  0  0  0
  6  8  1  0  0  0  0
  6 15  1  0  0  0  0
  6 16  1  0  0  0  0
  7  9  1  0  0  0  0
  7 17  1  0  0  0  0
  7 18  1  0  0  0  0
  8 10  1  0  0  0  0
  8 19  1  0  0  0  0
  8 20  1  0  0  0  0
  9 11  1  0  0  0  0
  9 21  1  0  0  0  0
  9 22  1  0  0  0  0
 10 23  1  0  0  0  0
 10 24  1  0  0  0  0
 11 12  1  0  0  0  0
 11 25  1  0  0  0  0
 11 26  1  0  0  0  0
 12 27  1  0  0  0  0
 12 28  1  0  0  0  0
 12 29  1  0  0  0  0
M  END
> <PUBCHEM_COMPOUND_CID>
78452

> <PUBCHEM_COMPOUND_CANONICALIZED>
1

> <PUBCHEM_CACTVS_COMPLEXITY>
141

> <PUBCHEM_CACTVS_HBOND_ACCEPTOR>
3

> <PUBCHEM_CACTVS_HBOND_DONOR>
2

> <PUBCHEM_CACTVS_ROTATABLE_BOND>
7

> <PUBCHEM_CACTVS_SUBSKEYS>
AAADceBwMAIAAAAAAAAAAAAAAAAAAAAAAAAAAAAAAAAAAAAAAAAAGAgACCAACACIAAACAAAAABAAQAAAAIAAAAAAAAAAAAAAAAAAAAIAAAAAAAAAAAAAAAEAgIAAAAAAAAAAAAAAAAAAAAAAAAAAAAAAAA==

> <PUBCHEM_IUPAC_OPENEYE_NAME>
octylphosphonic acid

> <PUBCHEM_IUPAC_CAS_NAME>
octylphosphonic acid

> <PUBCHEM_IUPAC_NAME_MARKUP>
octylphosphonic acid

> <PUBCHEM_IUPAC_NAME>
octylphosphonic acid

> <PUBCHEM_IUPAC_SYSTEMATIC_NAME>
octylphosphonic acid

> <PUBCHEM_IUPAC_TRADITIONAL_NAME>
octylphosphonic acid

> <PUBCHEM_IUPAC_INCHI>
InChI=1S/C8H19O3P/c1-2-3-4-5-6-7-8-12(9,10)11/h2-8H2,1H3,(H2,9,10,11)

> <PUBCHEM_IUPAC_INCHIKEY>
NJGCRMAPOWGWMW-UHFFFAOYSA-N

> <PUBCHEM_XLOGP3_AA>
1.8

> <PUBCHEM_EXACT_MASS>
194.10718146

> <PUBCHEM_MOLECULAR_FORMULA>
C8H19O3P

> <PUBCHEM_MOLECULAR_WEIGHT>
194.21

> <PUBCHEM_SMILES>
CCCCCCCCP(=O)(O)O

> <PUBCHEM_OPENEYE_CAN_SMILES>
CCCCCCCCP(=O)(O)O

> <PUBCHEM_OPENEYE_ISO_SMILES>
CCCCCCCCP(=O)(O)O

> <PUBCHEM_CACTVS_TPSA>
57.5

> <PUBCHEM_MONOISOTOPIC_WEIGHT>
194.10718146

> <PUBCHEM_TOTAL_CHARGE>
0

> <PUBCHEM_HEAVY_ATOM_COUNT>
12

> <PUBCHEM_ATOM_DEF_STEREO_COUNT>
0

> <PUBCHEM_ATOM_UDEF_STEREO_COUNT>
0

> <PUBCHEM_BOND_DEF_STEREO_COUNT>
0

> <PUBCHEM_BOND_UDEF_STEREO_COUNT>
0

> <PUBCHEM_ISOTOPIC_ATOM_COUNT>
0

> <PUBCHEM_COMPONENT_COUNT>
1

> <PUBCHEM_CACTVS_TAUTO_COUNT>
-1

> <PUBCHEM_COORDINATE_TYPE>
1
5
255

$$$$
