78501
  -OEChem-04042505362D

 19 18  0     0  0  0  0  0  0999 V2000
    2.7690    0.5490    0.0000 O   0  0  0  0  0  0  0  0  0  0  0  0
    2.5369   -0.3170    0.0000 O   0  0  0  0  0  0  0  0  0  0  0  0
    6.0010   -0.3170    0.0000 O   0  0  0  0  0  0  0  0  0  0  0  0
    5.1350    1.1830    0.0000 O   0  0  0  0  0  0  0  0  0  0  0  0
    4.2690   -0.3170    0.0000 C   0  0  0  0  0  0  0  0  0  0  0  0
    3.7690    0.5490    0.0000 C   0  0  0  0  0  0  0  0  0  0  0  0
    3.4030   -0.8170    0.0000 C   0  0  0  0  0  0  0  0  0  0  0  0
    4.7690   -1.1830    0.0000 C   0  0  0  0  0  0  0  0  0  0  0  0
    5.1350    0.1830    0.0000 C   0  0  0  0  0  0  0  0  0  0  0  0
    4.3516    0.7611    0.0000 H   0  0  0  0  0  0  0  0  0  0  0  0
    3.6613    1.1596    0.0000 H   0  0  0  0  0  0  0  0  0  0  0  0
    3.0044   -1.2919    0.0000 H   0  0  0  0  0  0  0  0  0  0  0  0
    3.8015   -1.2919    0.0000 H   0  0  0  0  0  0  0  0  0  0  0  0
    4.2320   -1.4930    0.0000 H   0  0  0  0  0  0  0  0  0  0  0  0
    5.0790   -1.7200    0.0000 H   0  0  0  0  0  0  0  0  0  0  0  0
    5.3059   -0.8730    0.0000 H   0  0  0  0  0  0  0  0  0  0  0  0
    2.4590    1.0860    0.0000 H   0  0  0  0  0  0  0  0  0  0  0  0
    2.0000   -0.6270    0.0000 H   0  0  0  0  0  0  0  0  0  0  0  0
    6.5380   -0.0070    0.0000 H   0  0  0  0  0  0  0  0  0  0  0  0
  1  6  1  0  0  0  0
  1 17  1  0  0  0  0
  2  7  1  0  0  0  0
  2 18  1  0  0  0  0
  3  9  1  0  0  0  0
  3 19  1  0  0  0  0
  4  9  2  0  0  0  0
  5  6  1  0  0  0  0
  5  7  1  0  0  0  0
  5  8  1  0  0  0  0
  5  9  1  0  0  0  0
  6 10  1  0  0  0  0
  6 11  1  0  0  0  0
  7 12  1  0  0  0  0
  7 13  1  0  0  0  0
  8 14  1  0  0  0  0
  8 15  1  0  0  0  0
  8 16  1  0  0  0  0
M  END
> <PUBCHEM_COMPOUND_CID>
78501

> <PUBCHEM_COMPOUND_CANONICALIZED>
1

> <PUBCHEM_CACTVS_COMPLEXITY>
106

> <PUBCHEM_CACTVS_HBOND_ACCEPTOR>
4

> <PUBCHEM_CACTVS_HBOND_DONOR>
3

> <PUBCHEM_CACTVS_ROTATABLE_BOND>
3

> <PUBCHEM_CACTVS_SUBSKEYS>
AAADccBgOAAAAAAAAAAAAAAAAAAAAAAAAAAAAAAAAAAAAAAAAAAAGgAACAAADgCggAICCAAAAgAIAACQCAAAAAAAAAAAAAEAAAAAEAQAAAAAQAABIAAAAAAAAAAAAAAAAAAAAAAAAAAAAAAAAAAAAAAAAA==

> <PUBCHEM_IUPAC_OPENEYE_NAME>
3-hydroxy-2-(hydroxymethyl)-2-methyl-propanoic acid

> <PUBCHEM_IUPAC_CAS_NAME>
3-hydroxy-2-(hydroxymethyl)-2-methylpropanoic acid

> <PUBCHEM_IUPAC_NAME_MARKUP>
3-hydroxy-2-(hydroxymethyl)-2-methylpropanoic acid

> <PUBCHEM_IUPAC_NAME>
3-hydroxy-2-(hydroxymethyl)-2-methylpropanoic acid

> <PUBCHEM_IUPAC_SYSTEMATIC_NAME>
2-(hydroxymethyl)-2-methyl-3-oxidanyl-propanoic acid

> <PUBCHEM_IUPAC_TRADITIONAL_NAME>
3-hydroxy-2-methyl-2-methylol-propionic acid

> <PUBCHEM_IUPAC_INCHI>
InChI=1S/C5H10O4/c1-5(2-6,3-7)4(8)9/h6-7H,2-3H2,1H3,(H,8,9)

> <PUBCHEM_IUPAC_INCHIKEY>
PTBDIHRZYDMNKB-UHFFFAOYSA-N

> <PUBCHEM_XLOGP3_AA>
-1.3

> <PUBCHEM_EXACT_MASS>
134.05790880

> <PUBCHEM_MOLECULAR_FORMULA>
C5H10O4

> <PUBCHEM_MOLECULAR_WEIGHT>
134.13

> <PUBCHEM_SMILES>
CC(CO)(CO)C(=O)O

> <PUBCHEM_OPENEYE_CAN_SMILES>
CC(CO)(CO)C(=O)O

> <PUBCHEM_OPENEYE_ISO_SMILES>
CC(CO)(CO)C(=O)O

> <PUBCHEM_CACTVS_TPSA>
77.8

> <PUBCHEM_MONOISOTOPIC_WEIGHT>
134.05790880

> <PUBCHEM_TOTAL_CHARGE>
0

> <PUBCHEM_HEAVY_ATOM_COUNT>
9

> <PUBCHEM_ATOM_DEF_STEREO_COUNT>
0

> <PUBCHEM_ATOM_UDEF_STEREO_COUNT>
0

> <PUBCHEM_BOND_DEF_STEREO_COUNT>
0

> <PUBCHEM_BOND_UDEF_STEREO_COUNT>
0

> <PUBCHEM_ISOTOPIC_ATOM_COUNT>
0

> <PUBCHEM_COMPONENT_COUNT>
1

> <PUBCHEM_CACTVS_TAUTO_COUNT>
-1

> <PUBCHEM_COORDINATE_TYPE>
1
5
255

$$$$
