80878
  -OEChem-04042512132D

 37 39  0     0  0  0  0  0  0999 V2000
    2.0000    1.4136    0.0000 K   0  3  0  0  0  0  0  0  0  0  0  0
    9.9243    2.9103    0.0000 K   0  3  0  0  0  0  0  0  0  0  0  0
    5.5891   -0.7016    0.0000 O   0  0  0  0  0  0  0  0  0  0  0  0
    6.3981    1.8862    0.0000 O   0  0  0  0  0  0  0  0  0  0  0  0
    5.3103   -2.4617    0.0000 O   0  0  0  0  0  0  0  0  0  0  0  0
    9.9282    1.9103    0.0000 O   0  5  0  0  0  0  0  0  0  0  0  0
    2.8680    1.9103    0.0000 O   0  5  0  0  0  0  0  0  0  0  0  0
    6.3981   -0.1138    0.0000 C   0  0  0  0  0  0  0  0  0  0  0  0
    7.2071   -0.7016    0.0000 C   0  0  0  0  0  0  0  0  0  0  0  0
    7.2641    0.3862    0.0000 C   0  0  0  0  0  0  0  0  0  0  0  0
    5.5320    0.3862    0.0000 C   0  0  0  0  0  0  0  0  0  0  0  0
    6.8981   -1.6527    0.0000 C   0  0  0  0  0  0  0  0  0  0  0  0
    7.2641    1.3862    0.0000 C   0  0  0  0  0  0  0  0  0  0  0  0
    5.5320    1.3862    0.0000 C   0  0  0  0  0  0  0  0  0  0  0  0
    5.8981   -1.6527    0.0000 C   0  0  0  0  0  0  0  0  0  0  0  0
    8.2026   -1.0082    0.0000 C   0  0  0  0  0  0  0  0  0  0  0  0
    8.1580   -0.1485    0.0000 C   0  0  0  0  0  0  0  0  0  0  0  0
    4.6381   -0.1485    0.0000 C   0  0  0  0  0  0  0  0  0  0  0  0
    7.0989   -2.6748    0.0000 C   0  0  0  0  0  0  0  0  0  0  0  0
    8.1580    1.9208    0.0000 C   0  0  0  0  0  0  0  0  0  0  0  0
    4.6381    1.9208    0.0000 C   0  0  0  0  0  0  0  0  0  0  0  0
    8.5717   -2.1193    0.0000 C   0  0  0  0  0  0  0  0  0  0  0  0
    9.0641    0.3653    0.0000 C   0  0  0  0  0  0  0  0  0  0  0  0
    3.7320    0.3653    0.0000 C   0  0  0  0  0  0  0  0  0  0  0  0
    7.9423   -2.9103    0.0000 C   0  0  0  0  0  0  0  0  0  0  0  0
    9.0641    1.4070    0.0000 C   0  0  0  0  0  0  0  0  0  0  0  0
    3.7320    1.4070    0.0000 C   0  0  0  0  0  0  0  0  0  0  0  0
    8.6361   -0.5650    0.0000 H   0  0  0  0  0  0  0  0  0  0  0  0
    8.1509   -0.7685    0.0000 H   0  0  0  0  0  0  0  0  0  0  0  0
    4.6453   -0.7685    0.0000 H   0  0  0  0  0  0  0  0  0  0  0  0
    6.6437   -3.0957    0.0000 H   0  0  0  0  0  0  0  0  0  0  0  0
    8.1509    2.5408    0.0000 H   0  0  0  0  0  0  0  0  0  0  0  0
    4.6453    2.5408    0.0000 H   0  0  0  0  0  0  0  0  0  0  0  0
    9.1822   -2.2277    0.0000 H   0  0  0  0  0  0  0  0  0  0  0  0
    9.5998    0.0533    0.0000 H   0  0  0  0  0  0  0  0  0  0  0  0
    3.1963    0.0533    0.0000 H   0  0  0  0  0  0  0  0  0  0  0  0
    8.1334   -3.5001    0.0000 H   0  0  0  0  0  0  0  0  0  0  0  0
  3  8  1  0  0  0  0
  3 15  1  0  0  0  0
  4 13  1  0  0  0  0
  4 14  1  0  0  0  0
  5 15  2  0  0  0  0
  6 26  1  0  0  0  0
  7 27  1  0  0  0  0
  8  9  1  0  0  0  0
  8 10  1  0  0  0  0
  8 11  1  0  0  0  0
  9 12  1  0  0  0  0
  9 16  2  0  0  0  0
 10 13  2  0  0  0  0
 10 17  1  0  0  0  0
 11 14  2  0  0  0  0
 11 18  1  0  0  0  0
 12 15  1  0  0  0  0
 12 19  2  0  0  0  0
 13 20  1  0  0  0  0
 14 21  1  0  0  0  0
 16 22  1  0  0  0  0
 16 28  1  0  0  0  0
 17 23  2  0  0  0  0
 17 29  1  0  0  0  0
 18 24  2  0  0  0  0
 18 30  1  0  0  0  0
 19 25  1  0  0  0  0
 19 31  1  0  0  0  0
 20 26  2  0  0  0  0
 20 32  1  0  0  0  0
 21 27  2  0  0  0  0
 21 33  1  0  0  0  0
 22 25  2  0  0  0  0
 22 34  1  0  0  0  0
 23 26  1  0  0  0  0
 23 35  1  0  0  0  0
 24 27  1  0  0  0  0
 24 36  1  0  0  0  0
 25 37  1  0  0  0  0
M  CHG  4   1   1   2   1   6  -1   7  -1
M  END
> <PUBCHEM_COMPOUND_CID>
80878

> <PUBCHEM_COMPOUND_CANONICALIZED>
1

> <PUBCHEM_CACTVS_COMPLEXITY>
522

> <PUBCHEM_CACTVS_HBOND_ACCEPTOR>
5

> <PUBCHEM_CACTVS_HBOND_DONOR>
0

> <PUBCHEM_CACTVS_ROTATABLE_BOND>
0

> <PUBCHEM_CACTVS_SUBSKEYS>
AAADccB4OAAAYAAAAAAAAAAAAAAAASAAAAA0YMEAAAAAAEiRUAAAGgAAAAAADESAmAAwDoAABACIAiDSCAACCAAkIAAIiAEGCMgMJzKENRqCOSClwBUIqYeK6PyOoAAACAAYAABAAAAQADAAAAAAAAAAAA==

> <PUBCHEM_IUPAC_OPENEYE_NAME>
dipotassium;3-oxospiro[isobenzofuran-1,9'-xanthene]-3',6'-diolate

> <PUBCHEM_IUPAC_CAS_NAME>
dipotassium;3-oxospiro[isobenzofuran-1,9'-xanthene]-3',6'-diolate

> <PUBCHEM_IUPAC_NAME_MARKUP>
dipotassium;3-oxospiro[2-benzofuran-1,9&apos;-xanthene]-3&apos;,6&apos;-diolate

> <PUBCHEM_IUPAC_NAME>
dipotassium;3-oxospiro[2-benzofuran-1,9'-xanthene]-3',6'-diolate

> <PUBCHEM_IUPAC_SYSTEMATIC_NAME>
dipotassium;3-oxidanylidenespiro[2-benzofuran-1,9'-xanthene]-3',6'-diolate

> <PUBCHEM_IUPAC_TRADITIONAL_NAME>
dipotassium;3-ketospiro[phthalan-1,9'-xanthene]-3',6'-diolate

> <PUBCHEM_IUPAC_INCHI>
InChI=1S/C20H12O5.2K/c21-11-5-7-15-17(9-11)24-18-10-12(22)6-8-16(18)20(15)14-4-2-1-3-13(14)19(23)25-20;;/h1-10,21-22H;;/q;2*+1/p-2

> <PUBCHEM_IUPAC_INCHIKEY>
DZSPMLRDMGJVAT-UHFFFAOYSA-L

> <PUBCHEM_EXACT_MASS>
407.98023638

> <PUBCHEM_MOLECULAR_FORMULA>
C20H10K2O5

> <PUBCHEM_MOLECULAR_WEIGHT>
408.5

> <PUBCHEM_SMILES>
C1=CC=C2C(=C1)C(=O)OC23C4=C(C=C(C=C4)[O-])OC5=C3C=CC(=C5)[O-].[K+].[K+]

> <PUBCHEM_OPENEYE_CAN_SMILES>
C1=CC=C2C(=C1)C(=O)OC23C4=C(C=C(C=C4)[O-])OC5=C3C=CC(=C5)[O-].[K+].[K+]

> <PUBCHEM_OPENEYE_ISO_SMILES>
C1=CC=C2C(=C1)C(=O)OC23C4=C(C=C(C=C4)[O-])OC5=C3C=CC(=C5)[O-].[K+].[K+]

> <PUBCHEM_CACTVS_TPSA>
81.7

> <PUBCHEM_MONOISOTOPIC_WEIGHT>
407.98023638

> <PUBCHEM_TOTAL_CHARGE>
0

> <PUBCHEM_HEAVY_ATOM_COUNT>
27

> <PUBCHEM_ATOM_DEF_STEREO_COUNT>
0

> <PUBCHEM_ATOM_UDEF_STEREO_COUNT>
0

> <PUBCHEM_BOND_DEF_STEREO_COUNT>
0

> <PUBCHEM_BOND_UDEF_STEREO_COUNT>
0

> <PUBCHEM_ISOTOPIC_ATOM_COUNT>
0

> <PUBCHEM_COMPONENT_COUNT>
3

> <PUBCHEM_CACTVS_TAUTO_COUNT>
-1

> <PUBCHEM_COORDINATE_TYPE>
1
5
255

> <PUBCHEM_BONDANNOTATIONS>
10  13  8
10  17  8
11  14  8
11  18  8
12  19  8
13  20  8
14  21  8
16  22  8
17  23  8
18  24  8
19  25  8
20  26  8
21  27  8
22  25  8
23  26  8
24  27  8
9  12  8
9  16  8

$$$$
