8265
  -OEChem-04042505512D

 20 22  0     1  0  0  0  0  0999 V2000
    5.0663   -1.3367    0.0000 Cl  0  0  0  0  0  0  0  0  0  0  0  0
    5.8428    1.5610    0.0000 Cl  0  0  0  0  0  0  0  0  0  0  0  0
    4.9519    2.5723    0.0000 Cl  0  0  0  0  0  0  0  0  0  0  0  0
    3.9338    1.9845    0.0000 Cl  0  0  0  0  0  0  0  0  0  0  0  0
    7.2241   -1.7456    0.0000 Cl  0  0  0  0  0  0  0  0  0  0  0  0
    7.8489    0.5863    0.0000 Cl  0  0  0  0  0  0  0  0  0  0  0  0
    2.3439   -1.0162    0.0000 O   0  0  0  0  0  0  0  0  0  0  0  0
    3.2007   -2.5723    0.0000 O   0  0  0  0  0  0  0  0  0  0  0  0
    2.0000    0.7265    0.0000 O   0  0  0  0  0  0  0  0  0  0  0  0
    5.3251   -0.3708    0.0000 C   0  0  3  0  0  0  0  0  0  0  0  0
    5.5840    0.5951    0.0000 C   0  0  3  0  0  0  0  0  0  0  0  0
    3.9524   -0.9628    0.0000 C   0  0  3  0  0  0  0  0  0  0  0  0
    3.6104   -0.0231    0.0000 C   0  0  3  0  0  0  0  0  0  0  0  0
    4.8473    1.5777    0.0000 C   0  0  0  0  0  0  0  0  0  0  0  0
    6.7241   -0.8796    0.0000 C   0  0  0  0  0  0  0  0  0  0  0  0
    6.9829    0.0863    0.0000 C   0  0  0  0  0  0  0  0  0  0  0  0
    3.1675   -1.5728    0.0000 C   0  0  0  0  0  0  0  0  0  0  0  0
    2.6170   -0.0604    0.0000 C   0  0  0  0  0  0  0  0  0  0  0  0
    4.3850   -1.6945    0.0000 H   0  0  0  0  0  0  0  0  0  0  0  0
    3.4661    0.8145    0.0000 H   0  0  0  0  0  0  0  0  0  0  0  0
  1 10  1  0  0  0  0
  2 11  1  0  0  0  0
  3 14  1  0  0  0  0
  4 14  1  0  0  0  0
  5 15  1  0  0  0  0
  6 16  1  0  0  0  0
  7 17  1  0  0  0  0
  7 18  1  0  0  0  0
  8 17  2  0  0  0  0
  9 18  2  0  0  0  0
 10 12  1  0  0  0  0
 10 14  1  0  0  0  0
 10 15  1  0  0  0  0
 11 13  1  0  0  0  0
 11 14  1  0  0  0  0
 11 16  1  0  0  0  0
 12 13  1  0  0  0  0
 12 17  1  0  0  0  0
 12 19  1  0  0  0  0
 13 18  1  0  0  0  0
 13 20  1  0  0  0  0
 15 16  2  0  0  0  0
M  END
> <PUBCHEM_COMPOUND_CID>
8265

> <PUBCHEM_COMPOUND_CANONICALIZED>
1

> <PUBCHEM_CACTVS_COMPLEXITY>
498

> <PUBCHEM_CACTVS_HBOND_ACCEPTOR>
3

> <PUBCHEM_CACTVS_HBOND_DONOR>
0

> <PUBCHEM_CACTVS_ROTATABLE_BOND>
0

> <PUBCHEM_CACTVS_SUBSKEYS>
AAADcQBwMAAHAAAAAAAAAAAAAAAAAaIEAAAgAAAAAAASAAAAAAAAGgIAAAAADQKAgIAACAAABACIAADQCAAAAAAgAAAACEEAAggAABIBAAACAAAEgAAIAAOLyDCOgAAAAAAAAAAAAAAAAAAAARAASIACAA==

> <PUBCHEM_IUPAC_OPENEYE_NAME>
1,7,8,9,10,10-hexachloro-4-oxatricyclo[5.2.1.02,6]dec-8-ene-3,5-dione

> <PUBCHEM_IUPAC_CAS_NAME>
1,7,8,9,10,10-hexachloro-4-oxatricyclo[5.2.1.02,6]dec-8-ene-3,5-dione

> <PUBCHEM_IUPAC_NAME_MARKUP>
1,7,8,9,10,10-hexachloro-4-oxatricyclo[5.2.1.0<SUP>2,6</SUP>]dec-8-ene-3,5-dione

> <PUBCHEM_IUPAC_NAME>
1,7,8,9,10,10-hexachloro-4-oxatricyclo[5.2.1.02,6]dec-8-ene-3,5-dione

> <PUBCHEM_IUPAC_SYSTEMATIC_NAME>
1,7,8,9,10,10-hexakis(chloranyl)-4-oxatricyclo[5.2.1.02,6]dec-8-ene-3,5-dione

> <PUBCHEM_IUPAC_TRADITIONAL_NAME>
1,7,8,9,10,10-hexachloro-4-oxatricyclo[5.2.1.02,6]dec-8-ene-3,5-quinone

> <PUBCHEM_IUPAC_INCHI>
InChI=1S/C9H2Cl6O3/c10-3-4(11)8(13)2-1(5(16)18-6(2)17)7(3,12)9(8,14)15/h1-2H

> <PUBCHEM_IUPAC_INCHIKEY>
FLBJFXNAEMSXGL-UHFFFAOYSA-N

> <PUBCHEM_XLOGP3_AA>
2.4

> <PUBCHEM_EXACT_MASS>
369.810560

> <PUBCHEM_MOLECULAR_FORMULA>
C9H2Cl6O3

> <PUBCHEM_MOLECULAR_WEIGHT>
370.8

> <PUBCHEM_SMILES>
C12C(C(=O)OC1=O)C3(C(=C(C2(C3(Cl)Cl)Cl)Cl)Cl)Cl

> <PUBCHEM_OPENEYE_CAN_SMILES>
C12C(C(=O)OC1=O)C3(C(=C(C2(C3(Cl)Cl)Cl)Cl)Cl)Cl

> <PUBCHEM_OPENEYE_ISO_SMILES>
C12C(C(=O)OC1=O)C3(C(=C(C2(C3(Cl)Cl)Cl)Cl)Cl)Cl

> <PUBCHEM_CACTVS_TPSA>
43.4

> <PUBCHEM_MONOISOTOPIC_WEIGHT>
367.813510

> <PUBCHEM_TOTAL_CHARGE>
0

> <PUBCHEM_HEAVY_ATOM_COUNT>
18

> <PUBCHEM_ATOM_DEF_STEREO_COUNT>
0

> <PUBCHEM_ATOM_UDEF_STEREO_COUNT>
4

> <PUBCHEM_BOND_DEF_STEREO_COUNT>
0

> <PUBCHEM_BOND_UDEF_STEREO_COUNT>
0

> <PUBCHEM_ISOTOPIC_ATOM_COUNT>
0

> <PUBCHEM_COMPONENT_COUNT>
1

> <PUBCHEM_CACTVS_TAUTO_COUNT>
-1

> <PUBCHEM_COORDINATE_TYPE>
1
5
255

> <PUBCHEM_BONDANNOTATIONS>
10  1  3
12  19  3
13  20  3
11  2  3

$$$$
