82672
  -OEChem-04042512322D

 13 12  0     0  0  0  0  0  0999 V2000
    4.9641    0.9330    0.0000 F   0  0  0  0  0  0  0  0  0  0  0  0
    5.9641   -0.7990    0.0000 F   0  0  0  0  0  0  0  0  0  0  0  0
    7.1962    1.0670    0.0000 F   0  0  0  0  0  0  0  0  0  0  0  0
    5.8301    1.4330    0.0000 F   0  0  0  0  0  0  0  0  0  0  0  0
    6.8301   -0.2990    0.0000 F   0  0  0  0  0  0  0  0  0  0  0  0
    3.7320    1.0670    0.0000 F   0  0  0  0  0  0  0  0  0  0  0  0
    2.0000    0.0670    0.0000 F   0  0  0  0  0  0  0  0  0  0  0  0
    2.8660   -1.4330    0.0000 F   0  0  0  0  0  0  0  0  0  0  0  0
    4.5981   -0.4330    0.0000 O   0  0  0  0  0  0  0  0  0  0  0  0
    5.4641    0.0670    0.0000 C   0  0  0  0  0  0  0  0  0  0  0  0
    6.3301    0.5670    0.0000 C   0  0  0  0  0  0  0  0  0  0  0  0
    3.7320    0.0670    0.0000 C   0  0  0  0  0  0  0  0  0  0  0  0
    2.8660   -0.4330    0.0000 C   0  0  0  0  0  0  0  0  0  0  0  0
  1 10  1  0  0  0  0
  2 10  1  0  0  0  0
  3 11  1  0  0  0  0
  4 11  1  0  0  0  0
  5 11  1  0  0  0  0
  6 12  1  0  0  0  0
  7 13  1  0  0  0  0
  8 13  1  0  0  0  0
  9 10  1  0  0  0  0
  9 12  1  0  0  0  0
 10 11  1  0  0  0  0
 12 13  2  0  0  0  0
M  END
> <PUBCHEM_COMPOUND_CID>
82672

> <PUBCHEM_COMPOUND_CANONICALIZED>
1

> <PUBCHEM_CACTVS_COMPLEXITY>
211

> <PUBCHEM_CACTVS_HBOND_ACCEPTOR>
9

> <PUBCHEM_CACTVS_HBOND_DONOR>
0

> <PUBCHEM_CACTVS_ROTATABLE_BOND>
2

> <PUBCHEM_CACTVS_SUBSKEYS>
AAADcQBgIcAAAAAAAAAAAAAAAAAAAAAAAAAAAAAAAAAAAAAAAAAACwAAAAAAAAAAgBAAAAAABACAAAAAAAAACAAAAAAAAAAAAAAAAAAAAAAAAAAAAAAAAAAAAAAAAAAAAAAAAAAAAAAAAAAAAAAAAAAAAA==

> <PUBCHEM_IUPAC_OPENEYE_NAME>
1,1,1,2,2-pentafluoro-2-(1,2,2-trifluorovinyloxy)ethane

> <PUBCHEM_IUPAC_CAS_NAME>
1,1,1,2,2-pentafluoro-2-(1,2,2-trifluoroethenoxy)ethane

> <PUBCHEM_IUPAC_NAME_MARKUP>
1,1,1,2,2-pentafluoro-2-(1,2,2-trifluoroethenoxy)ethane

> <PUBCHEM_IUPAC_NAME>
1,1,1,2,2-pentafluoro-2-(1,2,2-trifluoroethenoxy)ethane

> <PUBCHEM_IUPAC_SYSTEMATIC_NAME>
1,1,1,2,2-pentakis(fluoranyl)-2-[1,2,2-tris(fluoranyl)ethenoxy]ethane

> <PUBCHEM_IUPAC_TRADITIONAL_NAME>
1,1,1,2,2-pentafluoro-2-(1,2,2-trifluorovinyloxy)ethane

> <PUBCHEM_IUPAC_INCHI>
InChI=1S/C4F8O/c5-1(6)2(7)13-4(11,12)3(8,9)10

> <PUBCHEM_IUPAC_INCHIKEY>
GWTYBAOENKSFAY-UHFFFAOYSA-N

> <PUBCHEM_XLOGP3_AA>
3.1

> <PUBCHEM_EXACT_MASS>
215.98213992

> <PUBCHEM_MOLECULAR_FORMULA>
C4F8O

> <PUBCHEM_MOLECULAR_WEIGHT>
216.03

> <PUBCHEM_SMILES>
C(=C(F)F)(OC(C(F)(F)F)(F)F)F

> <PUBCHEM_OPENEYE_CAN_SMILES>
C(=C(F)F)(OC(C(F)(F)F)(F)F)F

> <PUBCHEM_OPENEYE_ISO_SMILES>
C(=C(F)F)(OC(C(F)(F)F)(F)F)F

> <PUBCHEM_CACTVS_TPSA>
9.2

> <PUBCHEM_MONOISOTOPIC_WEIGHT>
215.98213992

> <PUBCHEM_TOTAL_CHARGE>
0

> <PUBCHEM_HEAVY_ATOM_COUNT>
13

> <PUBCHEM_ATOM_DEF_STEREO_COUNT>
0

> <PUBCHEM_ATOM_UDEF_STEREO_COUNT>
0

> <PUBCHEM_BOND_DEF_STEREO_COUNT>
0

> <PUBCHEM_BOND_UDEF_STEREO_COUNT>
0

> <PUBCHEM_ISOTOPIC_ATOM_COUNT>
0

> <PUBCHEM_COMPONENT_COUNT>
1

> <PUBCHEM_CACTVS_TAUTO_COUNT>
-1

> <PUBCHEM_COORDINATE_TYPE>
1
5
255

$$$$
