83547
  -OEChem-04042512332D

  3  2  0     0  0  0  0  0  0999 V2000
    2.0000   -0.2500    0.0000 Br  0  0  0  0  0  0  0  0  0  0  0  0
    2.8660    0.2500    0.0000 O   0  0  0  0  0  0  0  0  0  0  0  0
    3.4030   -0.0600    0.0000 H   0  0  0  0  0  0  0  0  0  0  0  0
  1  2  1  0  0  0  0
  2  3  1  0  0  0  0
M  END
> <PUBCHEM_COMPOUND_CID>
83547

> <PUBCHEM_COMPOUND_CANONICALIZED>
1

> <PUBCHEM_CACTVS_COMPLEXITY>
2

> <PUBCHEM_CACTVS_HBOND_ACCEPTOR>
1

> <PUBCHEM_CACTVS_HBOND_DONOR>
1

> <PUBCHEM_CACTVS_ROTATABLE_BOND>
0

> <PUBCHEM_CACTVS_SUBSKEYS>
AAADcQAAIAAAEAAAAAAAAAAAAAAAAAAAAAAAAAAAAAAAAAAAAAAAAAAACAAAAAAAAAAAAAAAAAAAAAAAAAAAAAAAAAAAAAAAAAAAAAAAAAAAAAAAAAAAAAAAAAAAAAAAAAAAAAAAAAAAAAAAAAAAAAAAAA==

> <PUBCHEM_IUPAC_OPENEYE_NAME>
hypobromous acid

> <PUBCHEM_IUPAC_CAS_NAME>
hypobromous acid

> <PUBCHEM_IUPAC_NAME_MARKUP>
hypobromous acid

> <PUBCHEM_IUPAC_NAME>
hypobromous acid

> <PUBCHEM_IUPAC_SYSTEMATIC_NAME>
hypobromous acid

> <PUBCHEM_IUPAC_TRADITIONAL_NAME>
hypobromous acid

> <PUBCHEM_IUPAC_INCHI>
InChI=1S/BrHO/c1-2/h2H

> <PUBCHEM_IUPAC_INCHIKEY>
CUILPNURFADTPE-UHFFFAOYSA-N

> <PUBCHEM_XLOGP3_AA>
0.5

> <PUBCHEM_EXACT_MASS>
95.92108

> <PUBCHEM_MOLECULAR_FORMULA>
BrHO

> <PUBCHEM_MOLECULAR_WEIGHT>
96.91

> <PUBCHEM_SMILES>
OBr

> <PUBCHEM_OPENEYE_CAN_SMILES>
OBr

> <PUBCHEM_OPENEYE_ISO_SMILES>
OBr

> <PUBCHEM_CACTVS_TPSA>
20.2

> <PUBCHEM_MONOISOTOPIC_WEIGHT>
95.92108

> <PUBCHEM_TOTAL_CHARGE>
0

> <PUBCHEM_HEAVY_ATOM_COUNT>
2

> <PUBCHEM_ATOM_DEF_STEREO_COUNT>
0

> <PUBCHEM_ATOM_UDEF_STEREO_COUNT>
0

> <PUBCHEM_BOND_DEF_STEREO_COUNT>
0

> <PUBCHEM_BOND_UDEF_STEREO_COUNT>
0

> <PUBCHEM_ISOTOPIC_ATOM_COUNT>
0

> <PUBCHEM_COMPONENT_COUNT>
1

> <PUBCHEM_CACTVS_TAUTO_COUNT>
-1

> <PUBCHEM_COORDINATE_TYPE>
1
5
255

$$$$
