84892
  -OEChem-04042512252D

 28 27  0     0  0  0  0  0  0999 V2000
    3.7320    0.0000    0.0000 Si  0  0  0  0  0  0  0  0  0  0  0  0
    2.8660   -0.5000    0.0000 O   0  0  0  0  0  0  0  0  0  0  0  0
    3.2320    0.8660    0.0000 O   0  0  0  0  0  0  0  0  0  0  0  0
    4.2320   -0.8660    0.0000 O   0  0  0  0  0  0  0  0  0  0  0  0
    8.9282    1.0000    0.0000 O   0  0  0  0  0  0  0  0  0  0  0  0
    7.1962   -0.0000    0.0000 N   0  0  0  0  0  0  0  0  0  0  0  0
    4.5981    0.5000    0.0000 C   0  0  0  0  0  0  0  0  0  0  0  0
    5.4641    0.0000    0.0000 C   0  0  0  0  0  0  0  0  0  0  0  0
    6.3301    0.5000    0.0000 C   0  0  0  0  0  0  0  0  0  0  0  0
    2.0000   -0.0000    0.0000 C   0  0  0  0  0  0  0  0  0  0  0  0
    3.7320    1.7320    0.0000 C   0  0  0  0  0  0  0  0  0  0  0  0
    3.7320   -1.7320    0.0000 C   0  0  0  0  0  0  0  0  0  0  0  0
    8.0622    0.5000    0.0000 C   0  0  0  0  0  0  0  0  0  0  0  0
    4.9966    0.9749    0.0000 H   0  0  0  0  0  0  0  0  0  0  0  0
    4.1996    0.9749    0.0000 H   0  0  0  0  0  0  0  0  0  0  0  0
    5.0656   -0.4749    0.0000 H   0  0  0  0  0  0  0  0  0  0  0  0
    5.8626   -0.4749    0.0000 H   0  0  0  0  0  0  0  0  0  0  0  0
    6.7287    0.9749    0.0000 H   0  0  0  0  0  0  0  0  0  0  0  0
    5.9316    0.9749    0.0000 H   0  0  0  0  0  0  0  0  0  0  0  0
    2.3100    0.5369    0.0000 H   0  0  0  0  0  0  0  0  0  0  0  0
    1.4631    0.3100    0.0000 H   0  0  0  0  0  0  0  0  0  0  0  0
    1.6900   -0.5369    0.0000 H   0  0  0  0  0  0  0  0  0  0  0  0
    4.2690    1.4220    0.0000 H   0  0  0  0  0  0  0  0  0  0  0  0
    4.0420    2.2690    0.0000 H   0  0  0  0  0  0  0  0  0  0  0  0
    3.1951    2.0420    0.0000 H   0  0  0  0  0  0  0  0  0  0  0  0
    3.1951   -1.4220    0.0000 H   0  0  0  0  0  0  0  0  0  0  0  0
    3.4220   -2.2690    0.0000 H   0  0  0  0  0  0  0  0  0  0  0  0
    4.2690   -2.0420    0.0000 H   0  0  0  0  0  0  0  0  0  0  0  0
  1  2  1  0  0  0  0
  1  3  1  0  0  0  0
  1  4  1  0  0  0  0
  1  7  1  0  0  0  0
  2 10  1  0  0  0  0
  3 11  1  0  0  0  0
  4 12  1  0  0  0  0
  5 13  2  0  0  0  0
  6  9  1  0  0  0  0
  6 13  2  0  0  0  0
  7  8  1  0  0  0  0
  7 14  1  0  0  0  0
  7 15  1  0  0  0  0
  8  9  1  0  0  0  0
  8 16  1  0  0  0  0
  8 17  1  0  0  0  0
  9 18  1  0  0  0  0
  9 19  1  0  0  0  0
 10 20  1  0  0  0  0
 10 21  1  0  0  0  0
 10 22  1  0  0  0  0
 11 23  1  0  0  0  0
 11 24  1  0  0  0  0
 11 25  1  0  0  0  0
 12 26  1  0  0  0  0
 12 27  1  0  0  0  0
 12 28  1  0  0  0  0
M  END
> <PUBCHEM_COMPOUND_CID>
84892

> <PUBCHEM_COMPOUND_CANONICALIZED>
1

> <PUBCHEM_CACTVS_COMPLEXITY>
169

> <PUBCHEM_CACTVS_HBOND_ACCEPTOR>
5

> <PUBCHEM_CACTVS_HBOND_DONOR>
0

> <PUBCHEM_CACTVS_ROTATABLE_BOND>
7

> <PUBCHEM_CACTVS_SUBSKEYS>
AAADccBiOAgAAAAAAAAAAAAAAAAAAAAAAAAAAAAAAAAAAAAAAAAAHhAAAEAACADBIAZCAAIAAAAoAAAAFAAAAAAAAAAAAAAAAAAAAAAAAAAAAAAAAAAAAAAAAAAAAAAAAAAAAAAAAAAAAAAAAAAAAAAAAA==

> <PUBCHEM_IUPAC_OPENEYE_NAME>
3-isocyanatopropyl(trimethoxy)silane

> <PUBCHEM_IUPAC_CAS_NAME>
3-isocyanatopropyl(trimethoxy)silane

> <PUBCHEM_IUPAC_NAME_MARKUP>
3-isocyanatopropyl(trimethoxy)silane

> <PUBCHEM_IUPAC_NAME>
3-isocyanatopropyl(trimethoxy)silane

> <PUBCHEM_IUPAC_SYSTEMATIC_NAME>
3-isocyanatopropyl(trimethoxy)silane

> <PUBCHEM_IUPAC_TRADITIONAL_NAME>
3-isocyanatopropyl(trimethoxy)silane

> <PUBCHEM_IUPAC_INCHI>
InChI=1S/C7H15NO4Si/c1-10-13(11-2,12-3)6-4-5-8-7-9/h4-6H2,1-3H3

> <PUBCHEM_IUPAC_INCHIKEY>
FMGBDYLOANULLW-UHFFFAOYSA-N

> <PUBCHEM_EXACT_MASS>
205.07703449

> <PUBCHEM_MOLECULAR_FORMULA>
C7H15NO4Si

> <PUBCHEM_MOLECULAR_WEIGHT>
205.28

> <PUBCHEM_SMILES>
CO[Si](CCCN=C=O)(OC)OC

> <PUBCHEM_OPENEYE_CAN_SMILES>
CO[Si](CCCN=C=O)(OC)OC

> <PUBCHEM_OPENEYE_ISO_SMILES>
CO[Si](CCCN=C=O)(OC)OC

> <PUBCHEM_CACTVS_TPSA>
57.1

> <PUBCHEM_MONOISOTOPIC_WEIGHT>
205.07703449

> <PUBCHEM_TOTAL_CHARGE>
0

> <PUBCHEM_HEAVY_ATOM_COUNT>
13

> <PUBCHEM_ATOM_DEF_STEREO_COUNT>
0

> <PUBCHEM_ATOM_UDEF_STEREO_COUNT>
0

> <PUBCHEM_BOND_DEF_STEREO_COUNT>
0

> <PUBCHEM_BOND_UDEF_STEREO_COUNT>
0

> <PUBCHEM_ISOTOPIC_ATOM_COUNT>
0

> <PUBCHEM_COMPONENT_COUNT>
1

> <PUBCHEM_CACTVS_TAUTO_COUNT>
-1

> <PUBCHEM_COORDINATE_TYPE>
1
5
255

$$$$
