85131
  -OEChem-04042512422D

 77 76  0     0  0  0  0  0  0999 V2000
    8.0622    1.7320    0.0000 O   0  0  0  0  0  0  0  0  0  0  0  0
    9.7942    0.0000    0.0000 O   0  0  0  0  0  0  0  0  0  0  0  0
    6.3301   -0.0000    0.0000 O   0  0  0  0  0  0  0  0  0  0  0  0
    8.0622   -1.7320    0.0000 O   0  0  0  0  0  0  0  0  0  0  0  0
    6.5622    2.5981    0.0000 O   0  0  0  0  0  0  0  0  0  0  0  0
   10.6603    1.5000    0.0000 O   0  0  0  0  0  0  0  0  0  0  0  0
    5.4641   -1.5000    0.0000 O   0  0  0  0  0  0  0  0  0  0  0  0
    9.5622   -2.5981    0.0000 O   0  0  0  0  0  0  0  0  0  0  0  0
    8.0622    0.0000    0.0000 C   0  0  0  0  0  0  0  0  0  0  0  0
    7.5622    0.8660    0.0000 C   0  0  0  0  0  0  0  0  0  0  0  0
    8.9282    0.5000    0.0000 C   0  0  0  0  0  0  0  0  0  0  0  0
    7.1962   -0.5000    0.0000 C   0  0  0  0  0  0  0  0  0  0  0  0
    8.5622   -0.8660    0.0000 C   0  0  0  0  0  0  0  0  0  0  0  0
    7.5622    2.5981    0.0000 C   0  0  0  0  0  0  0  0  0  0  0  0
   10.6603    0.5000    0.0000 C   0  0  0  0  0  0  0  0  0  0  0  0
    5.4641   -0.5000    0.0000 C   0  0  0  0  0  0  0  0  0  0  0  0
    8.5622   -2.5981    0.0000 C   0  0  0  0  0  0  0  0  0  0  0  0
    8.0622    3.4641    0.0000 C   0  0  0  0  0  0  0  0  0  0  0  0
   11.5263   -0.0000    0.0000 C   0  0  0  0  0  0  0  0  0  0  0  0
    4.5981   -0.0000    0.0000 C   0  0  0  0  0  0  0  0  0  0  0  0
    8.0622   -3.4641    0.0000 C   0  0  0  0  0  0  0  0  0  0  0  0
    7.5622    4.3301    0.0000 C   0  0  0  0  0  0  0  0  0  0  0  0
   12.3923    0.5000    0.0000 C   0  0  0  0  0  0  0  0  0  0  0  0
    3.7320   -0.5000    0.0000 C   0  0  0  0  0  0  0  0  0  0  0  0
    8.5622   -4.3301    0.0000 C   0  0  0  0  0  0  0  0  0  0  0  0
    8.0622    5.1962    0.0000 C   0  0  0  0  0  0  0  0  0  0  0  0
   13.2583   -0.0000    0.0000 C   0  0  0  0  0  0  0  0  0  0  0  0
    2.8660   -0.0000    0.0000 C   0  0  0  0  0  0  0  0  0  0  0  0
    8.0622   -5.1962    0.0000 C   0  0  0  0  0  0  0  0  0  0  0  0
    7.5622    6.0622    0.0000 C   0  0  0  0  0  0  0  0  0  0  0  0
   14.1244    0.5000    0.0000 C   0  0  0  0  0  0  0  0  0  0  0  0
    2.0000   -0.5000    0.0000 C   0  0  0  0  0  0  0  0  0  0  0  0
    8.5622   -6.0622    0.0000 C   0  0  0  0  0  0  0  0  0  0  0  0
    7.0872    1.2646    0.0000 H   0  0  0  0  0  0  0  0  0  0  0  0
    7.0872    0.4675    0.0000 H   0  0  0  0  0  0  0  0  0  0  0  0
    9.3267    0.9749    0.0000 H   0  0  0  0  0  0  0  0  0  0  0  0
    8.5297    0.9749    0.0000 H   0  0  0  0  0  0  0  0  0  0  0  0
    6.7976   -0.9749    0.0000 H   0  0  0  0  0  0  0  0  0  0  0  0
    7.5947   -0.9749    0.0000 H   0  0  0  0  0  0  0  0  0  0  0  0
    9.0371   -1.2646    0.0000 H   0  0  0  0  0  0  0  0  0  0  0  0
    9.0371   -0.4675    0.0000 H   0  0  0  0  0  0  0  0  0  0  0  0
    8.5371    3.0656    0.0000 H   0  0  0  0  0  0  0  0  0  0  0  0
    8.5371    3.8626    0.0000 H   0  0  0  0  0  0  0  0  0  0  0  0
   11.1278   -0.4749    0.0000 H   0  0  0  0  0  0  0  0  0  0  0  0
   11.9248   -0.4749    0.0000 H   0  0  0  0  0  0  0  0  0  0  0  0
    4.9966    0.4749    0.0000 H   0  0  0  0  0  0  0  0  0  0  0  0
    4.1996    0.4749    0.0000 H   0  0  0  0  0  0  0  0  0  0  0  0
    7.5872   -3.0656    0.0000 H   0  0  0  0  0  0  0  0  0  0  0  0
    7.5872   -3.8626    0.0000 H   0  0  0  0  0  0  0  0  0  0  0  0
    7.0872    4.7287    0.0000 H   0  0  0  0  0  0  0  0  0  0  0  0
    7.0872    3.9316    0.0000 H   0  0  0  0  0  0  0  0  0  0  0  0
   12.7908    0.9749    0.0000 H   0  0  0  0  0  0  0  0  0  0  0  0
   11.9938    0.9749    0.0000 H   0  0  0  0  0  0  0  0  0  0  0  0
    3.3335   -0.9749    0.0000 H   0  0  0  0  0  0  0  0  0  0  0  0
    4.1306   -0.9749    0.0000 H   0  0  0  0  0  0  0  0  0  0  0  0
    9.0371   -4.7287    0.0000 H   0  0  0  0  0  0  0  0  0  0  0  0
    9.0371   -3.9316    0.0000 H   0  0  0  0  0  0  0  0  0  0  0  0
    8.5371    4.7976    0.0000 H   0  0  0  0  0  0  0  0  0  0  0  0
    8.5371    5.5947    0.0000 H   0  0  0  0  0  0  0  0  0  0  0  0
   12.8598   -0.4749    0.0000 H   0  0  0  0  0  0  0  0  0  0  0  0
   13.6569   -0.4749    0.0000 H   0  0  0  0  0  0  0  0  0  0  0  0
    3.2646    0.4749    0.0000 H   0  0  0  0  0  0  0  0  0  0  0  0
    2.4675    0.4749    0.0000 H   0  0  0  0  0  0  0  0  0  0  0  0
    7.5872   -4.7976    0.0000 H   0  0  0  0  0  0  0  0  0  0  0  0
    7.5872   -5.5947    0.0000 H   0  0  0  0  0  0  0  0  0  0  0  0
    8.0991    6.3722    0.0000 H   0  0  0  0  0  0  0  0  0  0  0  0
    7.2522    6.5991    0.0000 H   0  0  0  0  0  0  0  0  0  0  0  0
    7.0252    5.7522    0.0000 H   0  0  0  0  0  0  0  0  0  0  0  0
   14.4344   -0.0369    0.0000 H   0  0  0  0  0  0  0  0  0  0  0  0
   14.6613    0.8100    0.0000 H   0  0  0  0  0  0  0  0  0  0  0  0
   13.8144    1.0369    0.0000 H   0  0  0  0  0  0  0  0  0  0  0  0
    1.6900    0.0369    0.0000 H   0  0  0  0  0  0  0  0  0  0  0  0
    1.4631   -0.8100    0.0000 H   0  0  0  0  0  0  0  0  0  0  0  0
    2.3100   -1.0369    0.0000 H   0  0  0  0  0  0  0  0  0  0  0  0
    8.0252   -6.3722    0.0000 H   0  0  0  0  0  0  0  0  0  0  0  0
    8.8722   -6.5991    0.0000 H   0  0  0  0  0  0  0  0  0  0  0  0
    9.0991   -5.7522    0.0000 H   0  0  0  0  0  0  0  0  0  0  0  0
  1 10  1  0  0  0  0
  1 14  1  0  0  0  0
  2 11  1  0  0  0  0
  2 15  1  0  0  0  0
  3 12  1  0  0  0  0
  3 16  1  0  0  0  0
  4 13  1  0  0  0  0
  4 17  1  0  0  0  0
  5 14  2  0  0  0  0
  6 15  2  0  0  0  0
  7 16  2  0  0  0  0
  8 17  2  0  0  0  0
  9 10  1  0  0  0  0
  9 11  1  0  0  0  0
  9 12  1  0  0  0  0
  9 13  1  0  0  0  0
 10 34  1  0  0  0  0
 10 35  1  0  0  0  0
 11 36  1  0  0  0  0
 11 37  1  0  0  0  0
 12 38  1  0  0  0  0
 12 39  1  0  0  0  0
 13 40  1  0  0  0  0
 13 41  1  0  0  0  0
 14 18  1  0  0  0  0
 15 19  1  0  0  0  0
 16 20  1  0  0  0  0
 17 21  1  0  0  0  0
 18 22  1  0  0  0  0
 18 42  1  0  0  0  0
 18 43  1  0  0  0  0
 19 23  1  0  0  0  0
 19 44  1  0  0  0  0
 19 45  1  0  0  0  0
 20 24  1  0  0  0  0
 20 46  1  0  0  0  0
 20 47  1  0  0  0  0
 21 25  1  0  0  0  0
 21 48  1  0  0  0  0
 21 49  1  0  0  0  0
 22 26  1  0  0  0  0
 22 50  1  0  0  0  0
 22 51  1  0  0  0  0
 23 27  1  0  0  0  0
 23 52  1  0  0  0  0
 23 53  1  0  0  0  0
 24 28  1  0  0  0  0
 24 54  1  0  0  0  0
 24 55  1  0  0  0  0
 25 29  1  0  0  0  0
 25 56  1  0  0  0  0
 25 57  1  0  0  0  0
 26 30  1  0  0  0  0
 26 58  1  0  0  0  0
 26 59  1  0  0  0  0
 27 31  1  0  0  0  0
 27 60  1  0  0  0  0
 27 61  1  0  0  0  0
 28 32  1  0  0  0  0
 28 62  1  0  0  0  0
 28 63  1  0  0  0  0
 29 33  1  0  0  0  0
 29 64  1  0  0  0  0
 29 65  1  0  0  0  0
 30 66  1  0  0  0  0
 30 67  1  0  0  0  0
 30 68  1  0  0  0  0
 31 69  1  0  0  0  0
 31 70  1  0  0  0  0
 31 71  1  0  0  0  0
 32 72  1  0  0  0  0
 32 73  1  0  0  0  0
 32 74  1  0  0  0  0
 33 75  1  0  0  0  0
 33 76  1  0  0  0  0
 33 77  1  0  0  0  0
M  END
> <PUBCHEM_COMPOUND_CID>
85131

> <PUBCHEM_COMPOUND_CANONICALIZED>
1

> <PUBCHEM_CACTVS_COMPLEXITY>
471

> <PUBCHEM_CACTVS_HBOND_ACCEPTOR>
8

> <PUBCHEM_CACTVS_HBOND_DONOR>
0

> <PUBCHEM_CACTVS_ROTATABLE_BOND>
24

> <PUBCHEM_CACTVS_SUBSKEYS>
AAADcfB4PAAAAAAAAAAAAAAAAAAAAAAAAAAAAAAAAAAAAAAAAAAAGgAAAAAADgCggAICCAAABAAIAACQCAAAAAAAAAAAAAEAAAAAABIAAAACAAAFAAAAAACIAAAAAAAAAAAAAAAAAAAAAAAAAAAAAAAAAA==

> <PUBCHEM_IUPAC_OPENEYE_NAME>
[3-pentanoyloxy-2,2-bis(pentanoyloxymethyl)propyl] pentanoate

> <PUBCHEM_IUPAC_CAS_NAME>
pentanoic acid [3-(1-oxopentoxy)-2,2-bis(1-oxopentoxymethyl)propyl] ester

> <PUBCHEM_IUPAC_NAME_MARKUP>
[3-pentanoyloxy-2,2-bis(pentanoyloxymethyl)propyl] pentanoate

> <PUBCHEM_IUPAC_NAME>
[3-pentanoyloxy-2,2-bis(pentanoyloxymethyl)propyl] pentanoate

> <PUBCHEM_IUPAC_SYSTEMATIC_NAME>
[3-pentanoyloxy-2,2-bis(pentanoyloxymethyl)propyl] pentanoate

> <PUBCHEM_IUPAC_TRADITIONAL_NAME>
valeric acid [3-valeryloxy-2,2-bis(valeryloxymethyl)propyl] ester

> <PUBCHEM_IUPAC_INCHI>
InChI=1S/C25H44O8/c1-5-9-13-21(26)30-17-25(18-31-22(27)14-10-6-2,19-32-23(28)15-11-7-3)20-33-24(29)16-12-8-4/h5-20H2,1-4H3

> <PUBCHEM_IUPAC_INCHIKEY>
ZQYCVIGMGPFQQS-UHFFFAOYSA-N

> <PUBCHEM_XLOGP3_AA>
5.4

> <PUBCHEM_EXACT_MASS>
472.30361836

> <PUBCHEM_MOLECULAR_FORMULA>
C25H44O8

> <PUBCHEM_MOLECULAR_WEIGHT>
472.6

> <PUBCHEM_SMILES>
CCCCC(=O)OCC(COC(=O)CCCC)(COC(=O)CCCC)COC(=O)CCCC

> <PUBCHEM_OPENEYE_CAN_SMILES>
CCCCC(=O)OCC(COC(=O)CCCC)(COC(=O)CCCC)COC(=O)CCCC

> <PUBCHEM_OPENEYE_ISO_SMILES>
CCCCC(=O)OCC(COC(=O)CCCC)(COC(=O)CCCC)COC(=O)CCCC

> <PUBCHEM_CACTVS_TPSA>
105

> <PUBCHEM_MONOISOTOPIC_WEIGHT>
472.30361836

> <PUBCHEM_TOTAL_CHARGE>
0

> <PUBCHEM_HEAVY_ATOM_COUNT>
33

> <PUBCHEM_ATOM_DEF_STEREO_COUNT>
0

> <PUBCHEM_ATOM_UDEF_STEREO_COUNT>
0

> <PUBCHEM_BOND_DEF_STEREO_COUNT>
0

> <PUBCHEM_BOND_UDEF_STEREO_COUNT>
0

> <PUBCHEM_ISOTOPIC_ATOM_COUNT>
0

> <PUBCHEM_COMPONENT_COUNT>
1

> <PUBCHEM_CACTVS_TAUTO_COUNT>
-1

> <PUBCHEM_COORDINATE_TYPE>
1
5
255

$$$$
