85557
  -OEChem-04042505452D

 22 23  0     0  0  0  0  0  0999 V2000
    8.6651    1.5068    0.0000 O   0  0  0  0  0  0  0  0  0  0  0  0
    2.5369   -0.0173    0.0000 O   0  0  0  0  0  0  0  0  0  0  0  0
    3.4030   -1.5173    0.0000 O   0  0  0  0  0  0  0  0  0  0  0  0
    6.0010   -0.0173    0.0000 C   0  0  0  0  0  0  0  0  0  0  0  0
    6.0010    0.9827    0.0000 C   0  0  0  0  0  0  0  0  0  0  0  0
    5.1350   -0.5173    0.0000 C   0  0  0  0  0  0  0  0  0  0  0  0
    5.1350    1.4827    0.0000 C   0  0  0  0  0  0  0  0  0  0  0  0
    4.2690   -0.0173    0.0000 C   0  0  0  0  0  0  0  0  0  0  0  0
    6.8950    1.5173    0.0000 C   0  0  0  0  0  0  0  0  0  0  0  0
    6.8950   -0.5520    0.0000 C   0  0  0  0  0  0  0  0  0  0  0  0
    4.2690    0.9827    0.0000 C   0  0  0  0  0  0  0  0  0  0  0  0
    7.8010    1.0035    0.0000 C   0  0  0  0  0  0  0  0  0  0  0  0
    7.8010   -0.0381    0.0000 C   0  0  0  0  0  0  0  0  0  0  0  0
    3.4030   -0.5173    0.0000 C   0  0  0  0  0  0  0  0  0  0  0  0
    5.1350   -1.1373    0.0000 H   0  0  0  0  0  0  0  0  0  0  0  0
    5.1350    2.1027    0.0000 H   0  0  0  0  0  0  0  0  0  0  0  0
    6.8878    2.1373    0.0000 H   0  0  0  0  0  0  0  0  0  0  0  0
    6.8878   -1.1720    0.0000 H   0  0  0  0  0  0  0  0  0  0  0  0
    3.7320    1.2927    0.0000 H   0  0  0  0  0  0  0  0  0  0  0  0
    8.3368   -0.3502    0.0000 H   0  0  0  0  0  0  0  0  0  0  0  0
    9.2033    1.1989    0.0000 H   0  0  0  0  0  0  0  0  0  0  0  0
    2.0000   -0.3273    0.0000 H   0  0  0  0  0  0  0  0  0  0  0  0
  1 12  1  0  0  0  0
  1 21  1  0  0  0  0
  2 14  1  0  0  0  0
  2 22  1  0  0  0  0
  3 14  2  0  0  0  0
  4  5  2  0  0  0  0
  4  6  1  0  0  0  0
  4 10  1  0  0  0  0
  5  7  1  0  0  0  0
  5  9  1  0  0  0  0
  6  8  2  0  0  0  0
  6 15  1  0  0  0  0
  7 11  2  0  0  0  0
  7 16  1  0  0  0  0
  8 11  1  0  0  0  0
  8 14  1  0  0  0  0
  9 12  2  0  0  0  0
  9 17  1  0  0  0  0
 10 13  2  0  0  0  0
 10 18  1  0  0  0  0
 11 19  1  0  0  0  0
 12 13  1  0  0  0  0
 13 20  1  0  0  0  0
M  END
> <PUBCHEM_COMPOUND_CID>
85557

> <PUBCHEM_COMPOUND_CANONICALIZED>
1

> <PUBCHEM_CACTVS_COMPLEXITY>
227

> <PUBCHEM_CACTVS_HBOND_ACCEPTOR>
3

> <PUBCHEM_CACTVS_HBOND_DONOR>
2

> <PUBCHEM_CACTVS_ROTATABLE_BOND>
1

> <PUBCHEM_CACTVS_SUBSKEYS>
AAADccBwMAAAAAAAAAAAAAAAAAAAAAAAAAAwYAAAAAAAAADBUAAAGgAACAAADASAmAAwDsAAAgCIAiDSCAACAAAkIAAIiAEGCMgIJjKCFRKAcQAkwBEImYeIyPCO4AADAAAQAADAAAYAACAAAAAAAAAAAA==

> <PUBCHEM_IUPAC_OPENEYE_NAME>
6-hydroxynaphthalene-2-carboxylic acid

> <PUBCHEM_IUPAC_CAS_NAME>
6-hydroxy-2-naphthalenecarboxylic acid

> <PUBCHEM_IUPAC_NAME_MARKUP>
6-hydroxynaphthalene-2-carboxylic acid

> <PUBCHEM_IUPAC_NAME>
6-hydroxynaphthalene-2-carboxylic acid

> <PUBCHEM_IUPAC_SYSTEMATIC_NAME>
6-oxidanylnaphthalene-2-carboxylic acid

> <PUBCHEM_IUPAC_TRADITIONAL_NAME>
6-hydroxy-2-naphthoic acid

> <PUBCHEM_IUPAC_INCHI>
InChI=1S/C11H8O3/c12-10-4-3-7-5-9(11(13)14)2-1-8(7)6-10/h1-6,12H,(H,13,14)

> <PUBCHEM_IUPAC_INCHIKEY>
KAUQJMHLAFIZDU-UHFFFAOYSA-N

> <PUBCHEM_XLOGP3>
2.9

> <PUBCHEM_EXACT_MASS>
188.047344113

> <PUBCHEM_MOLECULAR_FORMULA>
C11H8O3

> <PUBCHEM_MOLECULAR_WEIGHT>
188.18

> <PUBCHEM_SMILES>
C1=CC2=C(C=CC(=C2)O)C=C1C(=O)O

> <PUBCHEM_OPENEYE_CAN_SMILES>
C1=CC2=C(C=CC(=C2)O)C=C1C(=O)O

> <PUBCHEM_OPENEYE_ISO_SMILES>
C1=CC2=C(C=CC(=C2)O)C=C1C(=O)O

> <PUBCHEM_CACTVS_TPSA>
57.5

> <PUBCHEM_MONOISOTOPIC_WEIGHT>
188.047344113

> <PUBCHEM_TOTAL_CHARGE>
0

> <PUBCHEM_HEAVY_ATOM_COUNT>
14

> <PUBCHEM_ATOM_DEF_STEREO_COUNT>
0

> <PUBCHEM_ATOM_UDEF_STEREO_COUNT>
0

> <PUBCHEM_BOND_DEF_STEREO_COUNT>
0

> <PUBCHEM_BOND_UDEF_STEREO_COUNT>
0

> <PUBCHEM_ISOTOPIC_ATOM_COUNT>
0

> <PUBCHEM_COMPONENT_COUNT>
1

> <PUBCHEM_CACTVS_TAUTO_COUNT>
-1

> <PUBCHEM_COORDINATE_TYPE>
1
5
255

> <PUBCHEM_BONDANNOTATIONS>
10  13  8
12  13  8
4  10  8
4  5  8
4  6  8
5  7  8
5  9  8
6  8  8
7  11  8
8  11  8
9  12  8

$$$$
