86583
  -OEChem-04042512152D

 49 49  0     1  0  0  0  0  0999 V2000
    2.8660    0.7500    0.0000 O   0  0  0  0  0  0  0  0  0  0  0  0
    4.5981    1.7500    0.0000 C   0  0  0  0  0  0  0  0  0  0  0  0
    2.8660   -1.2500    0.0000 C   0  0  0  0  0  0  0  0  0  0  0  0
    4.5981    0.7500    0.0000 C   0  0  0  0  0  0  0  0  0  0  0  0
    3.7320   -0.7500    0.0000 C   0  0  0  0  0  0  0  0  0  0  0  0
    5.4641   -0.7500    0.0000 C   0  0  0  0  0  0  0  0  0  0  0  0
    3.7320    0.2500    0.0000 C   0  0  0  0  0  0  0  0  0  0  0  0
    6.3301   -1.2500    0.0000 C   0  0  3  0  0  0  0  0  0  0  0  0
    5.4641    0.2500    0.0000 C   0  0  0  0  0  0  0  0  0  0  0  0
    4.5981   -1.2500    0.0000 C   0  0  0  0  0  0  0  0  0  0  0  0
    4.5981    2.7500    0.0000 C   0  0  0  0  0  0  0  0  0  0  0  0
    5.5981    1.7500    0.0000 C   0  0  0  0  0  0  0  0  0  0  0  0
    3.5981    1.7500    0.0000 C   0  0  0  0  0  0  0  0  0  0  0  0
    2.0000   -1.7500    0.0000 C   0  0  0  0  0  0  0  0  0  0  0  0
    3.3660   -2.1160    0.0000 C   0  0  0  0  0  0  0  0  0  0  0  0
    2.3660   -0.3840    0.0000 C   0  0  0  0  0  0  0  0  0  0  0  0
    6.3301   -2.2500    0.0000 C   0  0  0  0  0  0  0  0  0  0  0  0
    7.1962   -0.7500    0.0000 C   0  0  0  0  0  0  0  0  0  0  0  0
    7.1962   -2.7500    0.0000 C   0  0  0  0  0  0  0  0  0  0  0  0
    6.8671   -1.5600    0.0000 H   0  0  0  0  0  0  0  0  0  0  0  0
    6.0010    0.5600    0.0000 H   0  0  0  0  0  0  0  0  0  0  0  0
    4.5981   -1.8700    0.0000 H   0  0  0  0  0  0  0  0  0  0  0  0
    5.2181    2.7500    0.0000 H   0  0  0  0  0  0  0  0  0  0  0  0
    4.5981    3.3700    0.0000 H   0  0  0  0  0  0  0  0  0  0  0  0
    3.9781    2.7500    0.0000 H   0  0  0  0  0  0  0  0  0  0  0  0
    5.5981    1.1300    0.0000 H   0  0  0  0  0  0  0  0  0  0  0  0
    6.2181    1.7500    0.0000 H   0  0  0  0  0  0  0  0  0  0  0  0
    5.5981    2.3700    0.0000 H   0  0  0  0  0  0  0  0  0  0  0  0
    3.5981    2.3700    0.0000 H   0  0  0  0  0  0  0  0  0  0  0  0
    2.9781    1.7500    0.0000 H   0  0  0  0  0  0  0  0  0  0  0  0
    3.5981    1.1300    0.0000 H   0  0  0  0  0  0  0  0  0  0  0  0
    1.6900   -1.2131    0.0000 H   0  0  0  0  0  0  0  0  0  0  0  0
    1.4631   -2.0600    0.0000 H   0  0  0  0  0  0  0  0  0  0  0  0
    2.3100   -2.2869    0.0000 H   0  0  0  0  0  0  0  0  0  0  0  0
    2.8291   -2.4260    0.0000 H   0  0  0  0  0  0  0  0  0  0  0  0
    3.6760   -2.6530    0.0000 H   0  0  0  0  0  0  0  0  0  0  0  0
    3.9030   -1.8060    0.0000 H   0  0  0  0  0  0  0  0  0  0  0  0
    2.9030   -0.0740    0.0000 H   0  0  0  0  0  0  0  0  0  0  0  0
    2.0560    0.1530    0.0000 H   0  0  0  0  0  0  0  0  0  0  0  0
    1.8291   -0.6940    0.0000 H   0  0  0  0  0  0  0  0  0  0  0  0
    5.7196   -2.1423    0.0000 H   0  0  0  0  0  0  0  0  0  0  0  0
    6.1181   -2.8326    0.0000 H   0  0  0  0  0  0  0  0  0  0  0  0
    7.5062   -1.2869    0.0000 H   0  0  0  0  0  0  0  0  0  0  0  0
    7.7331   -0.4400    0.0000 H   0  0  0  0  0  0  0  0  0  0  0  0
    6.8862   -0.2131    0.0000 H   0  0  0  0  0  0  0  0  0  0  0  0
    6.8862   -3.2869    0.0000 H   0  0  0  0  0  0  0  0  0  0  0  0
    7.7331   -3.0600    0.0000 H   0  0  0  0  0  0  0  0  0  0  0  0
    7.5062   -2.2131    0.0000 H   0  0  0  0  0  0  0  0  0  0  0  0
    2.8660    1.3700    0.0000 H   0  0  0  0  0  0  0  0  0  0  0  0
  1  7  1  0  0  0  0
  1 49  1  0  0  0  0
  2  4  1  0  0  0  0
  2 11  1  0  0  0  0
  2 12  1  0  0  0  0
  2 13  1  0  0  0  0
  3  5  1  0  0  0  0
  3 14  1  0  0  0  0
  3 15  1  0  0  0  0
  3 16  1  0  0  0  0
  4  7  2  0  0  0  0
  4  9  1  0  0  0  0
  5  7  1  0  0  0  0
  5 10  2  0  0  0  0
  6  8  1  0  0  0  0
  6  9  2  0  0  0  0
  6 10  1  0  0  0  0
  8 17  1  0  0  0  0
  8 18  1  0  0  0  0
  8 20  1  0  0  0  0
  9 21  1  0  0  0  0
 10 22  1  0  0  0  0
 11 23  1  0  0  0  0
 11 24  1  0  0  0  0
 11 25  1  0  0  0  0
 12 26  1  0  0  0  0
 12 27  1  0  0  0  0
 12 28  1  0  0  0  0
 13 29  1  0  0  0  0
 13 30  1  0  0  0  0
 13 31  1  0  0  0  0
 14 32  1  0  0  0  0
 14 33  1  0  0  0  0
 14 34  1  0  0  0  0
 15 35  1  0  0  0  0
 15 36  1  0  0  0  0
 15 37  1  0  0  0  0
 16 38  1  0  0  0  0
 16 39  1  0  0  0  0
 16 40  1  0  0  0  0
 17 19  1  0  0  0  0
 17 41  1  0  0  0  0
 17 42  1  0  0  0  0
 18 43  1  0  0  0  0
 18 44  1  0  0  0  0
 18 45  1  0  0  0  0
 19 46  1  0  0  0  0
 19 47  1  0  0  0  0
 19 48  1  0  0  0  0
M  END
> <PUBCHEM_COMPOUND_CID>
86583

> <PUBCHEM_COMPOUND_CANONICALIZED>
1

> <PUBCHEM_CACTVS_COMPLEXITY>
257

> <PUBCHEM_CACTVS_HBOND_ACCEPTOR>
1

> <PUBCHEM_CACTVS_HBOND_DONOR>
1

> <PUBCHEM_CACTVS_ROTATABLE_BOND>
4

> <PUBCHEM_CACTVS_SUBSKEYS>
AAADceB4IAAAAAAAAAAAAAAAAAAAAAAAAAAwAAAAAAAAAAABAAAAGgAACAAADwSAmAAyBoAAAgCAAiBCAAACAAAgIAAAiAAECIgIJiKCERKAcAAkwBEImAeAwPAPoAACAAAIAABAAAQAABAAAAAAAAAAAA==

> <PUBCHEM_IUPAC_OPENEYE_NAME>
2,6-ditert-butyl-4-sec-butyl-phenol

> <PUBCHEM_IUPAC_CAS_NAME>
4-butan-2-yl-2,6-ditert-butylphenol

> <PUBCHEM_IUPAC_NAME_MARKUP>
4-butan-2-yl-2,6-di<I>tert</I>-butylphenol

> <PUBCHEM_IUPAC_NAME>
4-butan-2-yl-2,6-ditert-butylphenol

> <PUBCHEM_IUPAC_SYSTEMATIC_NAME>
4-butan-2-yl-2,6-ditert-butyl-phenol

> <PUBCHEM_IUPAC_TRADITIONAL_NAME>
2,6-ditert-butyl-4-sec-butyl-phenol

> <PUBCHEM_IUPAC_INCHI>
InChI=1S/C18H30O/c1-9-12(2)13-10-14(17(3,4)5)16(19)15(11-13)18(6,7)8/h10-12,19H,9H2,1-8H3

> <PUBCHEM_IUPAC_INCHIKEY>
BFZOTKYPSZSDEV-UHFFFAOYSA-N

> <PUBCHEM_XLOGP3_AA>
6.6

> <PUBCHEM_EXACT_MASS>
262.229665576

> <PUBCHEM_MOLECULAR_FORMULA>
C18H30O

> <PUBCHEM_MOLECULAR_WEIGHT>
262.4

> <PUBCHEM_SMILES>
CCC(C)C1=CC(=C(C(=C1)C(C)(C)C)O)C(C)(C)C

> <PUBCHEM_OPENEYE_CAN_SMILES>
CCC(C)C1=CC(=C(C(=C1)C(C)(C)C)O)C(C)(C)C

> <PUBCHEM_OPENEYE_ISO_SMILES>
CCC(C)C1=CC(=C(C(=C1)C(C)(C)C)O)C(C)(C)C

> <PUBCHEM_CACTVS_TPSA>
20.2

> <PUBCHEM_MONOISOTOPIC_WEIGHT>
262.229665576

> <PUBCHEM_TOTAL_CHARGE>
0

> <PUBCHEM_HEAVY_ATOM_COUNT>
19

> <PUBCHEM_ATOM_DEF_STEREO_COUNT>
0

> <PUBCHEM_ATOM_UDEF_STEREO_COUNT>
1

> <PUBCHEM_BOND_DEF_STEREO_COUNT>
0

> <PUBCHEM_BOND_UDEF_STEREO_COUNT>
0

> <PUBCHEM_ISOTOPIC_ATOM_COUNT>
0

> <PUBCHEM_COMPONENT_COUNT>
1

> <PUBCHEM_CACTVS_TAUTO_COUNT>
-1

> <PUBCHEM_COORDINATE_TYPE>
1
5
255

> <PUBCHEM_BONDANNOTATIONS>
4  7  8
4  9  8
5  10  8
5  7  8
6  10  8
6  9  8
8  18  3

$$$$
