87490983
  -OEChem-04042505442D

 29 27  0     1  0  0  0  0  0999 V2000
    3.9641    0.5000    0.0000 F   0  0  0  0  0  0  0  0  0  0  0  0
    2.9641    2.2320    0.0000 F   0  0  0  0  0  0  0  0  0  0  0  0
    3.8301    2.7320    0.0000 F   0  0  0  0  0  0  0  0  0  0  0  0
    4.8301    1.0000    0.0000 F   0  0  0  0  0  0  0  0  0  0  0  0
    2.0981    1.7320    0.0000 F   0  0  0  0  0  0  0  0  0  0  0  0
    3.0981    0.0000    0.0000 F   0  0  0  0  0  0  0  0  0  0  0  0
    6.0622    0.8660    0.0000 F   0  0  0  0  0  0  0  0  0  0  0  0
    7.4282    1.5000    0.0000 F   0  0  0  0  0  0  0  0  0  0  0  0
    6.4282    3.2320    0.0000 F   0  0  0  0  0  0  0  0  0  0  0  0
    0.0000    1.3660    0.0000 F   0  0  0  0  0  0  0  0  0  0  0  0
    0.3660    0.0000    0.0000 F   0  0  0  0  0  0  0  0  0  0  0  0
    1.3660    1.7320    0.0000 F   0  0  0  0  0  0  0  0  0  0  0  0
    5.1962    2.3660    0.0000 O   0  0  0  0  0  0  0  0  0  0  0  0
    1.7320    0.3660    0.0000 O   0  0  0  0  0  0  0  0  0  0  0  0
    8.6602    2.3660    0.0000 O   0  5  0  0  0  0  0  0  0  0  0  0
    7.7942    3.8660    0.0000 O   0  0  0  0  0  0  0  0  0  0  0  0
    4.3301    6.4030    0.0000 N   0  3  0  0  0  0  0  0  0  0  0  0
    3.4641    1.3660    0.0000 C   0  0  0  0  0  0  0  0  0  0  0  0
    4.3301    1.8660    0.0000 C   0  0  0  0  0  0  0  0  0  0  0  0
    2.5981    0.8660    0.0000 C   0  0  0  0  0  0  0  0  0  0  0  0
    6.0622    1.8660    0.0000 C   0  0  3  0  0  0  0  0  0  0  0  0
    6.9282    2.3660    0.0000 C   0  0  0  0  0  0  0  0  0  0  0  0
    0.8660    0.8660    0.0000 C   0  0  0  0  0  0  0  0  0  0  0  0
    7.7942    2.8660    0.0000 C   0  0  0  0  0  0  0  0  0  0  0  0
    6.0622    2.4860    0.0000 H   0  0  0  0  0  0  0  0  0  0  0  0
    4.8671    6.7130    0.0000 H   0  0  0  0  0  0  0  0  0  0  0  0
    3.7932    6.0930    0.0000 H   0  0  0  0  0  0  0  0  0  0  0  0
    4.0201    6.9399    0.0000 H   0  0  0  0  0  0  0  0  0  0  0  0
    4.6401    5.8660    0.0000 H   0  0  0  0  0  0  0  0  0  0  0  0
  1 18  1  0  0  0  0
  2 18  1  0  0  0  0
  3 19  1  0  0  0  0
  4 19  1  0  0  0  0
  5 20  1  0  0  0  0
  6 20  1  0  0  0  0
  7 21  1  0  0  0  0
  8 22  1  0  0  0  0
  9 22  1  0  0  0  0
 10 23  1  0  0  0  0
 11 23  1  0  0  0  0
 12 23  1  0  0  0  0
 13 19  1  0  0  0  0
 13 21  1  0  0  0  0
 14 20  1  0  0  0  0
 14 23  1  0  0  0  0
 15 24  1  0  0  0  0
 16 24  2  0  0  0  0
 17 26  1  0  0  0  0
 17 27  1  0  0  0  0
 17 28  1  0  0  0  0
 17 29  1  0  0  0  0
 18 19  1  0  0  0  0
 18 20  1  0  0  0  0
 21 22  1  0  0  0  0
 21 25  1  0  0  0  0
 22 24  1  0  0  0  0
M  CHG  2  15  -1  17   1
M  END
> <PUBCHEM_COMPOUND_CID>
87490983

> <PUBCHEM_COMPOUND_CANONICALIZED>
1

> <PUBCHEM_CACTVS_COMPLEXITY>
438

> <PUBCHEM_CACTVS_HBOND_ACCEPTOR>
16

> <PUBCHEM_CACTVS_HBOND_DONOR>
1

> <PUBCHEM_CACTVS_ROTATABLE_BOND>
6

> <PUBCHEM_CACTVS_SUBSKEYS>
AAADcYBiOcAAAAAAAAAAAAAAAAAAAAAAAAAAAAAAAAAAAAAAAAAAGwAQAAAACACggBIACAAABAAIAACQCAAAAAAAAAAAAAEAAAAAAAQAAAACAAABIAAAAAAAAAAAAAAAAAAAAAAAAAAAAAAAAAAAAAAAAA==

> <PUBCHEM_IUPAC_OPENEYE_NAME>
ammonium;2,2,3-trifluoro-3-[1,1,2,2,3,3-hexafluoro-3-(trifluoromethoxy)propoxy]propanoate

> <PUBCHEM_IUPAC_CAS_NAME>
ammonium;2,2,3-trifluoro-3-[1,1,2,2,3,3-hexafluoro-3-(trifluoromethoxy)propoxy]propanoate

> <PUBCHEM_IUPAC_NAME_MARKUP>
azanium;2,2,3-trifluoro-3-[1,1,2,2,3,3-hexafluoro-3-(trifluoromethoxy)propoxy]propanoate

> <PUBCHEM_IUPAC_NAME>
azanium;2,2,3-trifluoro-3-[1,1,2,2,3,3-hexafluoro-3-(trifluoromethoxy)propoxy]propanoate

> <PUBCHEM_IUPAC_SYSTEMATIC_NAME>
azanium;2,2,3-tris(fluoranyl)-3-[1,1,2,2,3,3-hexakis(fluoranyl)-3-(trifluoromethyloxy)propoxy]propanoate

> <PUBCHEM_IUPAC_TRADITIONAL_NAME>
ammonium;2,2,3-trifluoro-3-[1,1,2,2,3,3-hexafluoro-3-(trifluoromethoxy)propoxy]propionate

> <PUBCHEM_IUPAC_INCHI>
InChI=1S/C7H2F12O4.H3N/c8-1(3(9,10)2(20)21)22-5(13,14)4(11,12)6(15,16)23-7(17,18)19;/h1H,(H,20,21);1H3

> <PUBCHEM_IUPAC_INCHIKEY>
PLWXPXSPYCHPTF-UHFFFAOYSA-N

> <PUBCHEM_EXACT_MASS>
395.0026956

> <PUBCHEM_MOLECULAR_FORMULA>
C7H5F12NO4

> <PUBCHEM_MOLECULAR_WEIGHT>
395.10

> <PUBCHEM_SMILES>
C(C(C(=O)[O-])(F)F)(OC(C(C(OC(F)(F)F)(F)F)(F)F)(F)F)F.[NH4+]

> <PUBCHEM_OPENEYE_CAN_SMILES>
C(C(C(=O)[O-])(F)F)(OC(C(C(OC(F)(F)F)(F)F)(F)F)(F)F)F.[NH4+]

> <PUBCHEM_OPENEYE_ISO_SMILES>
C(C(C(=O)[O-])(F)F)(OC(C(C(OC(F)(F)F)(F)F)(F)F)(F)F)F.[NH4+]

> <PUBCHEM_CACTVS_TPSA>
59.6

> <PUBCHEM_MONOISOTOPIC_WEIGHT>
395.0026956

> <PUBCHEM_TOTAL_CHARGE>
0

> <PUBCHEM_HEAVY_ATOM_COUNT>
24

> <PUBCHEM_ATOM_DEF_STEREO_COUNT>
0

> <PUBCHEM_ATOM_UDEF_STEREO_COUNT>
1

> <PUBCHEM_BOND_DEF_STEREO_COUNT>
0

> <PUBCHEM_BOND_UDEF_STEREO_COUNT>
0

> <PUBCHEM_ISOTOPIC_ATOM_COUNT>
0

> <PUBCHEM_COMPONENT_COUNT>
2

> <PUBCHEM_CACTVS_TAUTO_COUNT>
-1

> <PUBCHEM_COORDINATE_TYPE>
1
5
255

> <PUBCHEM_BONDANNOTATIONS>
21  7  3

$$$$
