88054
  -OEChem-04042505312D

 18 17  0     0  0  0  0  0  0999 V2000
    5.0981   -1.1160    0.0000 F   0  0  0  0  0  0  0  0  0  0  0  0
    4.0981    0.6160    0.0000 F   0  0  0  0  0  0  0  0  0  0  0  0
    4.9641    1.1160    0.0000 F   0  0  0  0  0  0  0  0  0  0  0  0
    5.9641   -0.6160    0.0000 F   0  0  0  0  0  0  0  0  0  0  0  0
    3.2320    0.1160    0.0000 F   0  0  0  0  0  0  0  0  0  0  0  0
    4.2320   -1.6160    0.0000 F   0  0  0  0  0  0  0  0  0  0  0  0
    7.1962    1.2500    0.0000 F   0  0  0  0  0  0  0  0  0  0  0  0
    6.8301   -0.1160    0.0000 F   0  0  0  0  0  0  0  0  0  0  0  0
    5.8301    1.6160    0.0000 F   0  0  0  0  0  0  0  0  0  0  0  0
    4.5981   -0.2500    0.0000 C   0  0  0  0  0  0  0  0  0  0  0  0
    5.4641    0.2500    0.0000 C   0  0  0  0  0  0  0  0  0  0  0  0
    3.7320   -0.7500    0.0000 C   0  0  0  0  0  0  0  0  0  0  0  0
    6.3301    0.7500    0.0000 C   0  0  0  0  0  0  0  0  0  0  0  0
    2.8660   -1.2500    0.0000 C   0  0  0  0  0  0  0  0  0  0  0  0
    2.0000   -0.7500    0.0000 C   0  0  0  0  0  0  0  0  0  0  0  0
    2.8660   -1.8700    0.0000 H   0  0  0  0  0  0  0  0  0  0  0  0
    2.0000   -0.1300    0.0000 H   0  0  0  0  0  0  0  0  0  0  0  0
    1.4631   -1.0600    0.0000 H   0  0  0  0  0  0  0  0  0  0  0  0
  1 10  1  0  0  0  0
  2 10  1  0  0  0  0
  3 11  1  0  0  0  0
  4 11  1  0  0  0  0
  5 12  1  0  0  0  0
  6 12  1  0  0  0  0
  7 13  1  0  0  0  0
  8 13  1  0  0  0  0
  9 13  1  0  0  0  0
 10 11  1  0  0  0  0
 10 12  1  0  0  0  0
 11 13  1  0  0  0  0
 12 14  1  0  0  0  0
 14 15  2  0  0  0  0
 14 16  1  0  0  0  0
 15 17  1  0  0  0  0
 15 18  1  0  0  0  0
M  END
> <PUBCHEM_COMPOUND_CID>
88054

> <PUBCHEM_COMPOUND_CANONICALIZED>
1

> <PUBCHEM_CACTVS_COMPLEXITY>
248

> <PUBCHEM_CACTVS_HBOND_ACCEPTOR>
9

> <PUBCHEM_CACTVS_HBOND_DONOR>
0

> <PUBCHEM_CACTVS_ROTATABLE_BOND>
3

> <PUBCHEM_CACTVS_SUBSKEYS>
AAADcQBgAcAAAAAAAAAAAAAAAAAAAAAAAAAAAAAAAAAAAAAAAAAAGQAAAAAACACAABAAAAAAAACAACBCAAAAAAAgAAAIAAAAAAgAAAIAAAAAAAAAgAAAAAAAAAAAAAAAAAAAAAAAAAAAAAAAAAAAAAAAAA==

> <PUBCHEM_IUPAC_OPENEYE_NAME>
3,3,4,4,5,5,6,6,6-nonafluorohex-1-ene

> <PUBCHEM_IUPAC_CAS_NAME>
3,3,4,4,5,5,6,6,6-nonafluoro-1-hexene

> <PUBCHEM_IUPAC_NAME_MARKUP>
3,3,4,4,5,5,6,6,6-nonafluorohex-1-ene

> <PUBCHEM_IUPAC_NAME>
3,3,4,4,5,5,6,6,6-nonafluorohex-1-ene

> <PUBCHEM_IUPAC_SYSTEMATIC_NAME>
3,3,4,4,5,5,6,6,6-nonakis(fluoranyl)hex-1-ene

> <PUBCHEM_IUPAC_TRADITIONAL_NAME>
3,3,4,4,5,5,6,6,6-nonafluorohex-1-ene

> <PUBCHEM_IUPAC_INCHI>
InChI=1S/C6H3F9/c1-2-3(7,8)4(9,10)5(11,12)6(13,14)15/h2H,1H2

> <PUBCHEM_IUPAC_INCHIKEY>
GVEUEBXMTMZVSD-UHFFFAOYSA-N

> <PUBCHEM_XLOGP3_AA>
4

> <PUBCHEM_EXACT_MASS>
246.00910355

> <PUBCHEM_MOLECULAR_FORMULA>
C6H3F9

> <PUBCHEM_MOLECULAR_WEIGHT>
246.07

> <PUBCHEM_SMILES>
C=CC(C(C(C(F)(F)F)(F)F)(F)F)(F)F

> <PUBCHEM_OPENEYE_CAN_SMILES>
C=CC(C(C(C(F)(F)F)(F)F)(F)F)(F)F

> <PUBCHEM_OPENEYE_ISO_SMILES>
C=CC(C(C(C(F)(F)F)(F)F)(F)F)(F)F

> <PUBCHEM_CACTVS_TPSA>
0

> <PUBCHEM_MONOISOTOPIC_WEIGHT>
246.00910355

> <PUBCHEM_TOTAL_CHARGE>
0

> <PUBCHEM_HEAVY_ATOM_COUNT>
15

> <PUBCHEM_ATOM_DEF_STEREO_COUNT>
0

> <PUBCHEM_ATOM_UDEF_STEREO_COUNT>
0

> <PUBCHEM_BOND_DEF_STEREO_COUNT>
0

> <PUBCHEM_BOND_UDEF_STEREO_COUNT>
0

> <PUBCHEM_ISOTOPIC_ATOM_COUNT>
0

> <PUBCHEM_COMPONENT_COUNT>
1

> <PUBCHEM_CACTVS_TAUTO_COUNT>
-1

> <PUBCHEM_COORDINATE_TYPE>
1
5
255

$$$$
