88603
  -OEChem-04042512232D

 29 29  0     0  0  0  0  0  0999 V2000
    4.5981    1.6900    0.0000 O   0  0  0  0  0  0  0  0  0  0  0  0
    3.7320   -0.8100    0.0000 O   0  0  0  0  0  0  0  0  0  0  0  0
    6.3301    3.6900    0.0000 O   0  0  0  0  0  0  0  0  0  0  0  0
    2.0000   -0.8100    0.0000 O   0  0  0  0  0  0  0  0  0  0  0  0
    4.5981    0.6900    0.0000 C   0  0  0  0  0  0  0  0  0  0  0  0
    3.7320    0.1900    0.0000 C   0  0  0  0  0  0  0  0  0  0  0  0
    5.4641    2.1900    0.0000 C   0  0  0  0  0  0  0  0  0  0  0  0
    2.8660   -2.3100    0.0000 C   0  0  0  0  0  0  0  0  0  0  0  0
    5.4641    3.1900    0.0000 C   0  0  0  0  0  0  0  0  0  0  0  0
    2.8660   -1.3100    0.0000 C   0  0  0  0  0  0  0  0  0  0  0  0
    3.7320   -2.8100    0.0000 C   0  0  0  0  0  0  0  0  0  0  0  0
    2.0000   -2.8100    0.0000 C   0  0  0  0  0  0  0  0  0  0  0  0
    3.7320   -3.8100    0.0000 C   0  0  0  0  0  0  0  0  0  0  0  0
    2.0000   -3.8100    0.0000 C   0  0  0  0  0  0  0  0  0  0  0  0
    2.8660   -4.3100    0.0000 C   0  0  0  0  0  0  0  0  0  0  0  0
    4.8101    0.1074    0.0000 H   0  0  0  0  0  0  0  0  0  0  0  0
    5.2087    0.7977    0.0000 H   0  0  0  0  0  0  0  0  0  0  0  0
    3.5200    0.7726    0.0000 H   0  0  0  0  0  0  0  0  0  0  0  0
    3.1215    0.0823    0.0000 H   0  0  0  0  0  0  0  0  0  0  0  0
    5.6762    1.6074    0.0000 H   0  0  0  0  0  0  0  0  0  0  0  0
    6.0747    2.2977    0.0000 H   0  0  0  0  0  0  0  0  0  0  0  0
    5.2520    3.7726    0.0000 H   0  0  0  0  0  0  0  0  0  0  0  0
    4.8535    3.0823    0.0000 H   0  0  0  0  0  0  0  0  0  0  0  0
    4.2690   -2.5000    0.0000 H   0  0  0  0  0  0  0  0  0  0  0  0
    1.4631   -2.5000    0.0000 H   0  0  0  0  0  0  0  0  0  0  0  0
    4.2690   -4.1200    0.0000 H   0  0  0  0  0  0  0  0  0  0  0  0
    1.4631   -4.1200    0.0000 H   0  0  0  0  0  0  0  0  0  0  0  0
    2.8660   -4.9300    0.0000 H   0  0  0  0  0  0  0  0  0  0  0  0
    6.3301    4.3100    0.0000 H   0  0  0  0  0  0  0  0  0  0  0  0
  1  5  1  0  0  0  0
  1  7  1  0  0  0  0
  2  6  1  0  0  0  0
  2 10  1  0  0  0  0
  3  9  1  0  0  0  0
  3 29  1  0  0  0  0
  4 10  2  0  0  0  0
  5  6  1  0  0  0  0
  5 16  1  0  0  0  0
  5 17  1  0  0  0  0
  6 18  1  0  0  0  0
  6 19  1  0  0  0  0
  7  9  1  0  0  0  0
  7 20  1  0  0  0  0
  7 21  1  0  0  0  0
  8 10  1  0  0  0  0
  8 11  2  0  0  0  0
  8 12  1  0  0  0  0
  9 22  1  0  0  0  0
  9 23  1  0  0  0  0
 11 13  1  0  0  0  0
 11 24  1  0  0  0  0
 12 14  2  0  0  0  0
 12 25  1  0  0  0  0
 13 15  2  0  0  0  0
 13 26  1  0  0  0  0
 14 15  1  0  0  0  0
 14 27  1  0  0  0  0
 15 28  1  0  0  0  0
M  END
> <PUBCHEM_COMPOUND_CID>
88603

> <PUBCHEM_COMPOUND_CANONICALIZED>
1

> <PUBCHEM_CACTVS_COMPLEXITY>
175

> <PUBCHEM_CACTVS_HBOND_ACCEPTOR>
4

> <PUBCHEM_CACTVS_HBOND_DONOR>
1

> <PUBCHEM_CACTVS_ROTATABLE_BOND>
7

> <PUBCHEM_CACTVS_SUBSKEYS>
AAADccBwOAAAAAAAAAAAAAAAAAAAAAAAAAAwAAAAAAAAAAABAAAAGgAACAAADACgmAIwCIAABgCIAiDSCAACAAAkAAAIiAEACMgJNjKANRiCMQAkwAELqYeIyCCOAAAAAAAAAAAAAAAAAAAAAAAAAAAAAA==

> <PUBCHEM_IUPAC_OPENEYE_NAME>
2-(2-hydroxyethoxy)ethyl benzoate

> <PUBCHEM_IUPAC_CAS_NAME>
benzoic acid 2-(2-hydroxyethoxy)ethyl ester

> <PUBCHEM_IUPAC_NAME_MARKUP>
2-(2-hydroxyethoxy)ethyl benzoate

> <PUBCHEM_IUPAC_NAME>
2-(2-hydroxyethoxy)ethyl benzoate

> <PUBCHEM_IUPAC_SYSTEMATIC_NAME>
2-(2-hydroxyethyloxy)ethyl benzoate

> <PUBCHEM_IUPAC_TRADITIONAL_NAME>
benzoic acid 2-(2-hydroxyethoxy)ethyl ester

> <PUBCHEM_IUPAC_INCHI>
InChI=1S/C11H14O4/c12-6-7-14-8-9-15-11(13)10-4-2-1-3-5-10/h1-5,12H,6-9H2

> <PUBCHEM_IUPAC_INCHIKEY>
DNUPYEDSAQDUSO-UHFFFAOYSA-N

> <PUBCHEM_XLOGP3>
1.2

> <PUBCHEM_EXACT_MASS>
210.08920892

> <PUBCHEM_MOLECULAR_FORMULA>
C11H14O4

> <PUBCHEM_MOLECULAR_WEIGHT>
210.23

> <PUBCHEM_SMILES>
C1=CC=C(C=C1)C(=O)OCCOCCO

> <PUBCHEM_OPENEYE_CAN_SMILES>
C1=CC=C(C=C1)C(=O)OCCOCCO

> <PUBCHEM_OPENEYE_ISO_SMILES>
C1=CC=C(C=C1)C(=O)OCCOCCO

> <PUBCHEM_CACTVS_TPSA>
55.8

> <PUBCHEM_MONOISOTOPIC_WEIGHT>
210.08920892

> <PUBCHEM_TOTAL_CHARGE>
0

> <PUBCHEM_HEAVY_ATOM_COUNT>
15

> <PUBCHEM_ATOM_DEF_STEREO_COUNT>
0

> <PUBCHEM_ATOM_UDEF_STEREO_COUNT>
0

> <PUBCHEM_BOND_DEF_STEREO_COUNT>
0

> <PUBCHEM_BOND_UDEF_STEREO_COUNT>
0

> <PUBCHEM_ISOTOPIC_ATOM_COUNT>
0

> <PUBCHEM_COMPONENT_COUNT>
1

> <PUBCHEM_CACTVS_TAUTO_COUNT>
-1

> <PUBCHEM_COORDINATE_TYPE>
1
5
255

> <PUBCHEM_BONDANNOTATIONS>
11  13  8
12  14  8
13  15  8
14  15  8
8  11  8
8  12  8

$$$$
