88802
  -OEChem-04042512322D

 35 34  0     0  0  0  0  0  0999 V2000
    6.8671    0.5600    0.0000 O   0  0  0  0  0  0  0  0  0  0  0  0
    8.5991    1.5600    0.0000 O   0  0  0  0  0  0  0  0  0  0  0  0
    5.1350    1.5600    0.0000 O   0  0  0  0  0  0  0  0  0  0  0  0
    5.1350   -1.4400    0.0000 O   0  0  0  0  0  0  0  0  0  0  0  0
   11.1972    2.0600    0.0000 O   0  0  0  0  0  0  0  0  0  0  0  0
    2.5369    2.0600    0.0000 O   0  0  0  0  0  0  0  0  0  0  0  0
    6.8671    1.5600    0.0000 C   0  0  0  0  0  0  0  0  0  0  0  0
    7.7331    2.0600    0.0000 C   0  0  0  0  0  0  0  0  0  0  0  0
    6.0010    2.0600    0.0000 C   0  0  0  0  0  0  0  0  0  0  0  0
    6.0010    0.0600    0.0000 C   0  0  0  0  0  0  0  0  0  0  0  0
    9.4651    2.0600    0.0000 C   0  0  0  0  0  0  0  0  0  0  0  0
    4.2690    2.0600    0.0000 C   0  0  0  0  0  0  0  0  0  0  0  0
    6.0010   -0.9400    0.0000 C   0  0  0  0  0  0  0  0  0  0  0  0
   10.3312    1.5600    0.0000 C   0  0  0  0  0  0  0  0  0  0  0  0
    3.4030    1.5600    0.0000 C   0  0  0  0  0  0  0  0  0  0  0  0
    6.3301    1.2500    0.0000 H   0  0  0  0  0  0  0  0  0  0  0  0
    8.1316    2.5349    0.0000 H   0  0  0  0  0  0  0  0  0  0  0  0
    7.3346    2.5349    0.0000 H   0  0  0  0  0  0  0  0  0  0  0  0
    6.3996    2.5349    0.0000 H   0  0  0  0  0  0  0  0  0  0  0  0
    5.6025    2.5349    0.0000 H   0  0  0  0  0  0  0  0  0  0  0  0
    5.7890    0.6426    0.0000 H   0  0  0  0  0  0  0  0  0  0  0  0
    5.3905   -0.0477    0.0000 H   0  0  0  0  0  0  0  0  0  0  0  0
    9.8637    2.5349    0.0000 H   0  0  0  0  0  0  0  0  0  0  0  0
    9.0666    2.5349    0.0000 H   0  0  0  0  0  0  0  0  0  0  0  0
    4.6675    2.5349    0.0000 H   0  0  0  0  0  0  0  0  0  0  0  0
    3.8705    2.5349    0.0000 H   0  0  0  0  0  0  0  0  0  0  0  0
    6.2131   -1.5226    0.0000 H   0  0  0  0  0  0  0  0  0  0  0  0
    6.6116   -0.8323    0.0000 H   0  0  0  0  0  0  0  0  0  0  0  0
    9.9326    1.0850    0.0000 H   0  0  0  0  0  0  0  0  0  0  0  0
   10.7297    1.0850    0.0000 H   0  0  0  0  0  0  0  0  0  0  0  0
    3.0044    1.0850    0.0000 H   0  0  0  0  0  0  0  0  0  0  0  0
    3.8015    1.0850    0.0000 H   0  0  0  0  0  0  0  0  0  0  0  0
    5.1350   -2.0600    0.0000 H   0  0  0  0  0  0  0  0  0  0  0  0
   11.7341    1.7500    0.0000 H   0  0  0  0  0  0  0  0  0  0  0  0
    2.0000    1.7500    0.0000 H   0  0  0  0  0  0  0  0  0  0  0  0
  1  7  1  0  0  0  0
  1 10  1  0  0  0  0
  2  8  1  0  0  0  0
  2 11  1  0  0  0  0
  3  9  1  0  0  0  0
  3 12  1  0  0  0  0
  4 13  1  0  0  0  0
  4 33  1  0  0  0  0
  5 14  1  0  0  0  0
  5 34  1  0  0  0  0
  6 15  1  0  0  0  0
  6 35  1  0  0  0  0
  7  8  1  0  0  0  0
  7  9  1  0  0  0  0
  7 16  1  0  0  0  0
  8 17  1  0  0  0  0
  8 18  1  0  0  0  0
  9 19  1  0  0  0  0
  9 20  1  0  0  0  0
 10 13  1  0  0  0  0
 10 21  1  0  0  0  0
 10 22  1  0  0  0  0
 11 14  1  0  0  0  0
 11 23  1  0  0  0  0
 11 24  1  0  0  0  0
 12 15  1  0  0  0  0
 12 25  1  0  0  0  0
 12 26  1  0  0  0  0
 13 27  1  0  0  0  0
 13 28  1  0  0  0  0
 14 29  1  0  0  0  0
 14 30  1  0  0  0  0
 15 31  1  0  0  0  0
 15 32  1  0  0  0  0
M  END
> <PUBCHEM_COMPOUND_CID>
88802

> <PUBCHEM_COMPOUND_CANONICALIZED>
1

> <PUBCHEM_CACTVS_COMPLEXITY>
111

> <PUBCHEM_CACTVS_HBOND_ACCEPTOR>
6

> <PUBCHEM_CACTVS_HBOND_DONOR>
3

> <PUBCHEM_CACTVS_ROTATABLE_BOND>
11

> <PUBCHEM_CACTVS_SUBSKEYS>
AAADceBwOAAAAAAAAAAAAAAAAAAAAAAAAAAAAAAAAAAAAAAAAAAAGgAACAAACBSggAIAAAAABgAAAAAAAAAAAAAAAAAAAAAAAAABEAAAAAACAAABAAADAAAAAAAAAAAAAAAAAAAAAAAAAAAAAAAAAAAAAA==

> <PUBCHEM_IUPAC_OPENEYE_NAME>
2-[2,3-bis(2-hydroxyethoxy)propoxy]ethanol

> <PUBCHEM_IUPAC_CAS_NAME>
2-[2,3-bis(2-hydroxyethoxy)propoxy]ethanol

> <PUBCHEM_IUPAC_NAME_MARKUP>
2-[2,3-bis(2-hydroxyethoxy)propoxy]ethanol

> <PUBCHEM_IUPAC_NAME>
2-[2,3-bis(2-hydroxyethoxy)propoxy]ethanol

> <PUBCHEM_IUPAC_SYSTEMATIC_NAME>
2-[2,3-bis(2-hydroxyethyloxy)propoxy]ethanol

> <PUBCHEM_IUPAC_TRADITIONAL_NAME>
2-[2,3-bis(2-hydroxyethoxy)propoxy]ethanol

> <PUBCHEM_IUPAC_INCHI>
InChI=1S/C9H20O6/c10-1-4-13-7-9(15-6-3-12)8-14-5-2-11/h9-12H,1-8H2

> <PUBCHEM_IUPAC_INCHIKEY>
UCYLROVJSUACAD-UHFFFAOYSA-N

> <PUBCHEM_XLOGP3_AA>
-2.2

> <PUBCHEM_EXACT_MASS>
224.12598835

> <PUBCHEM_MOLECULAR_FORMULA>
C9H20O6

> <PUBCHEM_MOLECULAR_WEIGHT>
224.25

> <PUBCHEM_SMILES>
C(COCC(COCCO)OCCO)O

> <PUBCHEM_OPENEYE_CAN_SMILES>
C(COCC(COCCO)OCCO)O

> <PUBCHEM_OPENEYE_ISO_SMILES>
C(COCC(COCCO)OCCO)O

> <PUBCHEM_CACTVS_TPSA>
88.4

> <PUBCHEM_MONOISOTOPIC_WEIGHT>
224.12598835

> <PUBCHEM_TOTAL_CHARGE>
0

> <PUBCHEM_HEAVY_ATOM_COUNT>
15

> <PUBCHEM_ATOM_DEF_STEREO_COUNT>
0

> <PUBCHEM_ATOM_UDEF_STEREO_COUNT>
0

> <PUBCHEM_BOND_DEF_STEREO_COUNT>
0

> <PUBCHEM_BOND_UDEF_STEREO_COUNT>
0

> <PUBCHEM_ISOTOPIC_ATOM_COUNT>
0

> <PUBCHEM_COMPONENT_COUNT>
1

> <PUBCHEM_CACTVS_TAUTO_COUNT>
-1

> <PUBCHEM_COORDINATE_TYPE>
1
5
255

$$$$
