90362
  -OEChem-04042512242D

  2  1  0     0  0  0  0  0  0999 V2000
    3.0000    0.0000    0.0000 Cr  0  0  0  0  0  0  0  0  0  0  0  0
    2.0000    0.0000    0.0000 N   0  0  0  0  0  0  0  0  0  0  0  0
  1  2  3  0  0  0  0
M  END
> <PUBCHEM_COMPOUND_CID>
90362

> <PUBCHEM_COMPOUND_CANONICALIZED>
1

> <PUBCHEM_CACTVS_COMPLEXITY>
10

> <PUBCHEM_CACTVS_HBOND_ACCEPTOR>
1

> <PUBCHEM_CACTVS_HBOND_DONOR>
0

> <PUBCHEM_CACTVS_ROTATABLE_BOND>
0

> <PUBCHEM_CACTVS_SUBSKEYS>
AAADcQACAAAAAACAAAAAAAAAAAAAAAAAAAAAAAAAAAAAAAAAAAAAAAAAAAAAAAAAAAAAAAAAAAAAAAAAAAAAAAAAAAAAAAAAAAAAAAAAAAAAAAAAAAAAAAAAAAAAAAAAAAAAAAAAAAAAAAAAAAAAAAAAAA==

> <PUBCHEM_IUPAC_OPENEYE_NAME>
nitridochromium

> <PUBCHEM_IUPAC_CAS_NAME>
nitrilochromium

> <PUBCHEM_IUPAC_NAME_MARKUP>
azanylidynechromium

> <PUBCHEM_IUPAC_NAME>
azanylidynechromium

> <PUBCHEM_IUPAC_SYSTEMATIC_NAME>
azanylidynechromium

> <PUBCHEM_IUPAC_TRADITIONAL_NAME>
nitrilochromium

> <PUBCHEM_IUPAC_INCHI>
InChI=1S/Cr.N

> <PUBCHEM_IUPAC_INCHIKEY>
CXOWYMLTGOFURZ-UHFFFAOYSA-N

> <PUBCHEM_EXACT_MASS>
65.943579

> <PUBCHEM_MOLECULAR_FORMULA>
CrN

> <PUBCHEM_MOLECULAR_WEIGHT>
66.003

> <PUBCHEM_SMILES>
N#[Cr]

> <PUBCHEM_OPENEYE_CAN_SMILES>
N#[Cr]

> <PUBCHEM_OPENEYE_ISO_SMILES>
N#[Cr]

> <PUBCHEM_CACTVS_TPSA>
23.8

> <PUBCHEM_MONOISOTOPIC_WEIGHT>
65.943579

> <PUBCHEM_TOTAL_CHARGE>
0

> <PUBCHEM_HEAVY_ATOM_COUNT>
2

> <PUBCHEM_ATOM_DEF_STEREO_COUNT>
0

> <PUBCHEM_ATOM_UDEF_STEREO_COUNT>
0

> <PUBCHEM_BOND_DEF_STEREO_COUNT>
0

> <PUBCHEM_BOND_UDEF_STEREO_COUNT>
0

> <PUBCHEM_ISOTOPIC_ATOM_COUNT>
0

> <PUBCHEM_COMPONENT_COUNT>
1

> <PUBCHEM_CACTVS_TAUTO_COUNT>
-1

> <PUBCHEM_COORDINATE_TYPE>
1
5
255

$$$$
