90471822
  -OEChem-04042506002D

 14 10  0     0  0  0  0  0  0999 V2000
    0.0000    1.0000    0.0000 K   0  3  0  0  0  0  0  0  0  0  0  0
    1.7320    1.0000    0.0000 Si  0  0  0  0  0  0  0  0  0  0  0  0
    1.7320    4.5000    0.0000 Si  0  0  0  0  0  0  0  0  0  0  0  0
    3.4641    1.0000    0.0000 Al  0  0  0  0  0  0  0  0  0  0  0  0
    3.4641    4.5000    0.0000 Al  0  0  0  0  0  0  0  0  0  0  0  0
    0.0000    4.5000    0.0000 Na  0  3  0  0  0  0  0  0  0  0  0  0
    2.5981    1.5000    0.0000 O   0  0  0  0  0  0  0  0  0  0  0  0
    2.5981    5.0000    0.0000 O   0  0  0  0  0  0  0  0  0  0  0  0
    0.8660    1.5000    0.0000 O   0  5  0  0  0  0  0  0  0  0  0  0
    0.8660    5.0000    0.0000 O   0  5  0  0  0  0  0  0  0  0  0  0
    1.7320    0.0000    0.0000 O   0  0  0  0  0  0  0  0  0  0  0  0
    1.7320    3.5000    0.0000 O   0  0  0  0  0  0  0  0  0  0  0  0
    4.3301    1.5000    0.0000 O   0  0  0  0  0  0  0  0  0  0  0  0
    4.3301    5.0000    0.0000 O   0  0  0  0  0  0  0  0  0  0  0  0
  2  7  1  0  0  0  0
  2  9  1  0  0  0  0
  2 11  2  0  0  0  0
  3  8  1  0  0  0  0
  3 10  1  0  0  0  0
  3 12  2  0  0  0  0
  4  7  1  0  0  0  0
  4 13  2  0  0  0  0
  5  8  1  0  0  0  0
  5 14  2  0  0  0  0
M  CHG  4   1   1   6   1   9  -1  10  -1
M  END
> <PUBCHEM_COMPOUND_CID>
90471822

> <PUBCHEM_COMPOUND_CANONICALIZED>
1

> <PUBCHEM_CACTVS_COMPLEXITY>
62.4

> <PUBCHEM_CACTVS_HBOND_ACCEPTOR>
8

> <PUBCHEM_CACTVS_HBOND_DONOR>
0

> <PUBCHEM_CACTVS_ROTATABLE_BOND>
0

> <PUBCHEM_CACTVS_SUBSKEYS>
AAADcQAAPCwAQBAAAAAAAAAAAAAAAAAAAAAAAAAAAAAAAAAAAAAAAAAAAMAAAAAAAAAAAAAAAAAAAAAAAAAAAAAAAAAAAAAAAAAAAAAAAAAAAAAAAAAAAAAAAAAAAAAAAAAAAAAAAAAAAAAAAAAAAAAAAA==

> <PUBCHEM_IUPAC_OPENEYE_NAME>
potassium;sodium;oxido-oxo-oxoalumanyloxy-silane

> <PUBCHEM_IUPAC_CAS_NAME>
potassium;sodium;oxido-oxo-oxoalumanyloxysilane

> <PUBCHEM_IUPAC_NAME_MARKUP>
potassium;sodium;oxido-oxo-oxoalumanyloxysilane

> <PUBCHEM_IUPAC_NAME>
potassium;sodium;oxido-oxo-oxoalumanyloxysilane

> <PUBCHEM_IUPAC_SYSTEMATIC_NAME>
potassium;sodium;oxidanidyl-oxidanylidene-oxidanylidenealumanyloxy-silane

> <PUBCHEM_IUPAC_TRADITIONAL_NAME>
potassium;sodium;keto-ketoalumanyloxy-oxido-silane

> <PUBCHEM_IUPAC_INCHI>
InChI=1S/2Al.K.Na.2O3Si.2O/c;;;;2*1-4(2)3;;/q4*+1;2*-2;;

> <PUBCHEM_IUPAC_INCHIKEY>
MIIFSAFUFQUZOI-UHFFFAOYSA-N

> <PUBCHEM_EXACT_MASS>
299.829723

> <PUBCHEM_MOLECULAR_FORMULA>
Al2KNaO8Si2

> <PUBCHEM_MOLECULAR_WEIGHT>
300.22

> <PUBCHEM_SMILES>
[O-][Si](=O)O[Al]=O.[O-][Si](=O)O[Al]=O.[Na+].[K+]

> <PUBCHEM_OPENEYE_CAN_SMILES>
[O-][Si](=O)O[Al]=O.[O-][Si](=O)O[Al]=O.[Na+].[K+]

> <PUBCHEM_OPENEYE_ISO_SMILES>
[O-][Si](=O)O[Al]=O.[O-][Si](=O)O[Al]=O.[Na+].[K+]

> <PUBCHEM_CACTVS_TPSA>
133

> <PUBCHEM_MONOISOTOPIC_WEIGHT>
299.829723

> <PUBCHEM_TOTAL_CHARGE>
0

> <PUBCHEM_HEAVY_ATOM_COUNT>
14

> <PUBCHEM_ATOM_DEF_STEREO_COUNT>
0

> <PUBCHEM_ATOM_UDEF_STEREO_COUNT>
0

> <PUBCHEM_BOND_DEF_STEREO_COUNT>
0

> <PUBCHEM_BOND_UDEF_STEREO_COUNT>
0

> <PUBCHEM_ISOTOPIC_ATOM_COUNT>
0

> <PUBCHEM_COMPONENT_COUNT>
4

> <PUBCHEM_CACTVS_TAUTO_COUNT>
-1

> <PUBCHEM_COORDINATE_TYPE>
1
5
255

$$$$
