91333377
  -OEChem-04042505512D

 48 42  0     0  0  0  0  0  0999 V2000
    0.6200    5.4800    0.0000 C   0  0  0  0  0  0  0  0  0  0  0  0
    1.6200    5.4800    0.0000 C   0  0  0  0  0  0  0  0  0  0  0  0
    4.8600    0.6200    0.0000 C   0  0  0  0  0  0  0  0  0  0  0  0
    5.8600    0.6200    0.0000 C   0  0  0  0  0  0  0  0  0  0  0  0
    4.8600    3.8600    0.0000 C   0  0  0  0  0  0  0  0  0  0  0  0
    5.8600    3.8600    0.0000 C   0  0  0  0  0  0  0  0  0  0  0  0
    4.8600    7.1000    0.0000 C   0  0  0  0  0  0  0  0  0  0  0  0
    5.8600    7.1000    0.0000 C   0  0  0  0  0  0  0  0  0  0  0  0
    4.8600   10.3400    0.0000 C   0  0  0  0  0  0  0  0  0  0  0  0
    5.8600   10.3400    0.0000 C   0  0  0  0  0  0  0  0  0  0  0  0
    9.1000    5.4800    0.0000 C   0  0  0  0  0  0  0  0  0  0  0  0
   10.1000    5.4800    0.0000 C   0  0  0  0  0  0  0  0  0  0  0  0
    0.6200    6.1000    0.0000 H   0  0  0  0  0  0  0  0  0  0  0  0
    0.0000    5.4800    0.0000 H   0  0  0  0  0  0  0  0  0  0  0  0
    0.6200    4.8600    0.0000 H   0  0  0  0  0  0  0  0  0  0  0  0
    1.6200    4.8600    0.0000 H   0  0  0  0  0  0  0  0  0  0  0  0
    2.2400    5.4800    0.0000 H   0  0  0  0  0  0  0  0  0  0  0  0
    1.6200    6.1000    0.0000 H   0  0  0  0  0  0  0  0  0  0  0  0
    4.8600    1.2400    0.0000 H   0  0  0  0  0  0  0  0  0  0  0  0
    4.2400    0.6200    0.0000 H   0  0  0  0  0  0  0  0  0  0  0  0
    4.8600    0.0000    0.0000 H   0  0  0  0  0  0  0  0  0  0  0  0
    5.8600    0.0000    0.0000 H   0  0  0  0  0  0  0  0  0  0  0  0
    6.4800    0.6200    0.0000 H   0  0  0  0  0  0  0  0  0  0  0  0
    5.8600    1.2400    0.0000 H   0  0  0  0  0  0  0  0  0  0  0  0
    4.8600    4.4800    0.0000 H   0  0  0  0  0  0  0  0  0  0  0  0
    4.2400    3.8600    0.0000 H   0  0  0  0  0  0  0  0  0  0  0  0
    4.8600    3.2400    0.0000 H   0  0  0  0  0  0  0  0  0  0  0  0
    5.8600    3.2400    0.0000 H   0  0  0  0  0  0  0  0  0  0  0  0
    6.4800    3.8600    0.0000 H   0  0  0  0  0  0  0  0  0  0  0  0
    5.8600    4.4800    0.0000 H   0  0  0  0  0  0  0  0  0  0  0  0
    4.8600    7.7200    0.0000 H   0  0  0  0  0  0  0  0  0  0  0  0
    4.2400    7.1000    0.0000 H   0  0  0  0  0  0  0  0  0  0  0  0
    4.8600    6.4800    0.0000 H   0  0  0  0  0  0  0  0  0  0  0  0
    5.8600    6.4800    0.0000 H   0  0  0  0  0  0  0  0  0  0  0  0
    6.4800    7.1000    0.0000 H   0  0  0  0  0  0  0  0  0  0  0  0
    5.8600    7.7200    0.0000 H   0  0  0  0  0  0  0  0  0  0  0  0
    4.8600   10.9600    0.0000 H   0  0  0  0  0  0  0  0  0  0  0  0
    4.2400   10.3400    0.0000 H   0  0  0  0  0  0  0  0  0  0  0  0
    4.8600    9.7200    0.0000 H   0  0  0  0  0  0  0  0  0  0  0  0
    5.8600    9.7200    0.0000 H   0  0  0  0  0  0  0  0  0  0  0  0
    6.4800   10.3400    0.0000 H   0  0  0  0  0  0  0  0  0  0  0  0
    5.8600   10.9600    0.0000 H   0  0  0  0  0  0  0  0  0  0  0  0
    9.1000    6.1000    0.0000 H   0  0  0  0  0  0  0  0  0  0  0  0
    8.4800    5.4800    0.0000 H   0  0  0  0  0  0  0  0  0  0  0  0
    9.1000    4.8600    0.0000 H   0  0  0  0  0  0  0  0  0  0  0  0
   10.1000    4.8600    0.0000 H   0  0  0  0  0  0  0  0  0  0  0  0
   10.7200    5.4800    0.0000 H   0  0  0  0  0  0  0  0  0  0  0  0
   10.1000    6.1000    0.0000 H   0  0  0  0  0  0  0  0  0  0  0  0
  1  2  1  0  0  0  0
  1 13  1  0  0  0  0
  1 14  1  0  0  0  0
  1 15  1  0  0  0  0
  2 16  1  0  0  0  0
  2 17  1  0  0  0  0
  2 18  1  0  0  0  0
  3  4  1  0  0  0  0
  3 19  1  0  0  0  0
  3 20  1  0  0  0  0
  3 21  1  0  0  0  0
  4 22  1  0  0  0  0
  4 23  1  0  0  0  0
  4 24  1  0  0  0  0
  5  6  1  0  0  0  0
  5 25  1  0  0  0  0
  5 26  1  0  0  0  0
  5 27  1  0  0  0  0
  6 28  1  0  0  0  0
  6 29  1  0  0  0  0
  6 30  1  0  0  0  0
  7  8  1  0  0  0  0
  7 31  1  0  0  0  0
  7 32  1  0  0  0  0
  7 33  1  0  0  0  0
  8 34  1  0  0  0  0
  8 35  1  0  0  0  0
  8 36  1  0  0  0  0
  9 10  1  0  0  0  0
  9 37  1  0  0  0  0
  9 38  1  0  0  0  0
  9 39  1  0  0  0  0
 10 40  1  0  0  0  0
 10 41  1  0  0  0  0
 10 42  1  0  0  0  0
 11 12  1  0  0  0  0
 11 43  1  0  0  0  0
 11 44  1  0  0  0  0
 11 45  1  0  0  0  0
 12 46  1  0  0  0  0
 12 47  1  0  0  0  0
 12 48  1  0  0  0  0
M  END
> <PUBCHEM_COMPOUND_CID>
91333377

> <PUBCHEM_COMPOUND_CANONICALIZED>
1

> <PUBCHEM_CACTVS_COMPLEXITY>
0

> <PUBCHEM_CACTVS_HBOND_ACCEPTOR>
0

> <PUBCHEM_CACTVS_HBOND_DONOR>
0

> <PUBCHEM_CACTVS_ROTATABLE_BOND>
0

> <PUBCHEM_CACTVS_SUBSKEYS>
AAADcfBwAAAAAAAAAAAAAAAAAAAAAAAAAAAAAAAAAAAAAAAAAAAAGAAAAAAAAACAAAACAAAAAAAAAAAAAAAAAAAAAAAAAAAAAAAAAAAAAAAAAAAAAAAAAAAAAAAAAAAAAAAAAAAAAAAAAAAAAAAAAAAAAA==

> <PUBCHEM_IUPAC_OPENEYE_NAME>
ethane

> <PUBCHEM_IUPAC_CAS_NAME>
ethane

> <PUBCHEM_IUPAC_NAME_MARKUP>
ethane

> <PUBCHEM_IUPAC_NAME>
ethane

> <PUBCHEM_IUPAC_SYSTEMATIC_NAME>
ethane

> <PUBCHEM_IUPAC_TRADITIONAL_NAME>
ethane

> <PUBCHEM_IUPAC_INCHI>
InChI=1S/6C2H6/c6*1-2/h6*1-2H3

> <PUBCHEM_IUPAC_INCHIKEY>
GPOWYVZNNHYPBM-UHFFFAOYSA-N

> <PUBCHEM_EXACT_MASS>
180.281701148

> <PUBCHEM_MOLECULAR_FORMULA>
C12H36

> <PUBCHEM_MOLECULAR_WEIGHT>
180.41

> <PUBCHEM_SMILES>
CC.CC.CC.CC.CC.CC

> <PUBCHEM_OPENEYE_CAN_SMILES>
CC.CC.CC.CC.CC.CC

> <PUBCHEM_OPENEYE_ISO_SMILES>
CC.CC.CC.CC.CC.CC

> <PUBCHEM_CACTVS_TPSA>
0

> <PUBCHEM_MONOISOTOPIC_WEIGHT>
180.281701148

> <PUBCHEM_TOTAL_CHARGE>
0

> <PUBCHEM_HEAVY_ATOM_COUNT>
12

> <PUBCHEM_ATOM_DEF_STEREO_COUNT>
0

> <PUBCHEM_ATOM_UDEF_STEREO_COUNT>
0

> <PUBCHEM_BOND_DEF_STEREO_COUNT>
0

> <PUBCHEM_BOND_UDEF_STEREO_COUNT>
0

> <PUBCHEM_ISOTOPIC_ATOM_COUNT>
0

> <PUBCHEM_COMPONENT_COUNT>
6

> <PUBCHEM_CACTVS_TAUTO_COUNT>
-1

> <PUBCHEM_COORDINATE_TYPE>
1
5
255

$$$$
