91620
  -OEChem-03202503492D

 92 93  0     0  0  0  0  0  0999 V2000
    2.5369    7.7500    0.0000 O   0  0  0  0  0  0  0  0  0  0  0  0
   15.5273   -7.7500    0.0000 O   0  0  0  0  0  0  0  0  0  0  0  0
    6.8671    3.2500    0.0000 O   0  0  0  0  0  0  0  0  0  0  0  0
   11.1972   -3.2500    0.0000 O   0  0  0  0  0  0  0  0  0  0  0  0
    7.7331    4.7500    0.0000 O   0  0  0  0  0  0  0  0  0  0  0  0
   10.3312   -4.7500    0.0000 O   0  0  0  0  0  0  0  0  0  0  0  0
    8.5991    1.2500    0.0000 O   0  0  0  0  0  0  0  0  0  0  0  0
    9.4651   -1.2500    0.0000 O   0  0  0  0  0  0  0  0  0  0  0  0
    4.2690    8.7500    0.0000 C   0  0  0  0  0  0  0  0  0  0  0  0
   13.7953   -8.7500    0.0000 C   0  0  0  0  0  0  0  0  0  0  0  0
    4.2690    7.7500    0.0000 C   0  0  0  0  0  0  0  0  0  0  0  0
   13.7953   -7.7500    0.0000 C   0  0  0  0  0  0  0  0  0  0  0  0
    4.2690    9.7500    0.0000 C   0  0  0  0  0  0  0  0  0  0  0  0
    5.2690    8.7500    0.0000 C   0  0  0  0  0  0  0  0  0  0  0  0
    3.2690    8.7500    0.0000 C   0  0  0  0  0  0  0  0  0  0  0  0
   13.7953   -9.7500    0.0000 C   0  0  0  0  0  0  0  0  0  0  0  0
   12.7953   -8.7500    0.0000 C   0  0  0  0  0  0  0  0  0  0  0  0
   14.7953   -8.7500    0.0000 C   0  0  0  0  0  0  0  0  0  0  0  0
    5.1350    7.2500    0.0000 C   0  0  0  0  0  0  0  0  0  0  0  0
   12.9292   -7.2500    0.0000 C   0  0  0  0  0  0  0  0  0  0  0  0
    3.4030    7.2500    0.0000 C   0  0  0  0  0  0  0  0  0  0  0  0
   14.6613   -7.2500    0.0000 C   0  0  0  0  0  0  0  0  0  0  0  0
    5.1350    6.2500    0.0000 C   0  0  0  0  0  0  0  0  0  0  0  0
   12.9292   -6.2500    0.0000 C   0  0  0  0  0  0  0  0  0  0  0  0
    3.4030    6.2500    0.0000 C   0  0  0  0  0  0  0  0  0  0  0  0
   14.6613   -6.2500    0.0000 C   0  0  0  0  0  0  0  0  0  0  0  0
    4.2690    5.7500    0.0000 C   0  0  0  0  0  0  0  0  0  0  0  0
   13.7953   -5.7500    0.0000 C   0  0  0  0  0  0  0  0  0  0  0  0
    6.0010    5.7500    0.0000 C   0  0  0  0  0  0  0  0  0  0  0  0
   12.0632   -5.7500    0.0000 C   0  0  0  0  0  0  0  0  0  0  0  0
    6.0010    4.7500    0.0000 C   0  0  0  0  0  0  0  0  0  0  0  0
   12.0632   -4.7500    0.0000 C   0  0  0  0  0  0  0  0  0  0  0  0
    2.5369    5.7500    0.0000 C   0  0  0  0  0  0  0  0  0  0  0  0
   15.5273   -5.7500    0.0000 C   0  0  0  0  0  0  0  0  0  0  0  0
    6.8671    4.2500    0.0000 C   0  0  0  0  0  0  0  0  0  0  0  0
   11.1972   -4.2500    0.0000 C   0  0  0  0  0  0  0  0  0  0  0  0
    7.7331    2.7500    0.0000 C   0  0  0  0  0  0  0  0  0  0  0  0
   10.3312   -2.7500    0.0000 C   0  0  0  0  0  0  0  0  0  0  0  0
    7.7331    1.7500    0.0000 C   0  0  0  0  0  0  0  0  0  0  0  0
   10.3312   -1.7500    0.0000 C   0  0  0  0  0  0  0  0  0  0  0  0
    8.5991    0.2500    0.0000 C   0  0  0  0  0  0  0  0  0  0  0  0
    9.4651   -0.2500    0.0000 C   0  0  0  0  0  0  0  0  0  0  0  0
    4.8890    9.7500    0.0000 H   0  0  0  0  0  0  0  0  0  0  0  0
    4.2690   10.3700    0.0000 H   0  0  0  0  0  0  0  0  0  0  0  0
    3.6490    9.7500    0.0000 H   0  0  0  0  0  0  0  0  0  0  0  0
    5.2690    8.1300    0.0000 H   0  0  0  0  0  0  0  0  0  0  0  0
    5.8890    8.7500    0.0000 H   0  0  0  0  0  0  0  0  0  0  0  0
    5.2690    9.3700    0.0000 H   0  0  0  0  0  0  0  0  0  0  0  0
    3.2690    9.3700    0.0000 H   0  0  0  0  0  0  0  0  0  0  0  0
    2.6490    8.7500    0.0000 H   0  0  0  0  0  0  0  0  0  0  0  0
    3.2690    8.1300    0.0000 H   0  0  0  0  0  0  0  0  0  0  0  0
   13.1753   -9.7500    0.0000 H   0  0  0  0  0  0  0  0  0  0  0  0
   13.7953  -10.3700    0.0000 H   0  0  0  0  0  0  0  0  0  0  0  0
   14.4153   -9.7500    0.0000 H   0  0  0  0  0  0  0  0  0  0  0  0
   12.7953   -8.1300    0.0000 H   0  0  0  0  0  0  0  0  0  0  0  0
   12.1753   -8.7500    0.0000 H   0  0  0  0  0  0  0  0  0  0  0  0
   12.7953   -9.3700    0.0000 H   0  0  0  0  0  0  0  0  0  0  0  0
   14.7953   -9.3700    0.0000 H   0  0  0  0  0  0  0  0  0  0  0  0
   15.4153   -8.7500    0.0000 H   0  0  0  0  0  0  0  0  0  0  0  0
   14.7953   -8.1300    0.0000 H   0  0  0  0  0  0  0  0  0  0  0  0
    5.6720    7.5600    0.0000 H   0  0  0  0  0  0  0  0  0  0  0  0
   12.3923   -7.5600    0.0000 H   0  0  0  0  0  0  0  0  0  0  0  0
    4.2690    5.1300    0.0000 H   0  0  0  0  0  0  0  0  0  0  0  0
   13.7953   -5.1300    0.0000 H   0  0  0  0  0  0  0  0  0  0  0  0
    6.6116    5.6423    0.0000 H   0  0  0  0  0  0  0  0  0  0  0  0
    6.2131    6.3326    0.0000 H   0  0  0  0  0  0  0  0  0  0  0  0
   11.4526   -5.6423    0.0000 H   0  0  0  0  0  0  0  0  0  0  0  0
   11.8512   -6.3326    0.0000 H   0  0  0  0  0  0  0  0  0  0  0  0
    5.3905    4.8577    0.0000 H   0  0  0  0  0  0  0  0  0  0  0  0
    5.7890    4.1674    0.0000 H   0  0  0  0  0  0  0  0  0  0  0  0
   12.6738   -4.8577    0.0000 H   0  0  0  0  0  0  0  0  0  0  0  0
   12.2753   -4.1674    0.0000 H   0  0  0  0  0  0  0  0  0  0  0  0
    2.2269    6.2869    0.0000 H   0  0  0  0  0  0  0  0  0  0  0  0
    2.0000    5.4400    0.0000 H   0  0  0  0  0  0  0  0  0  0  0  0
    2.8469    5.2131    0.0000 H   0  0  0  0  0  0  0  0  0  0  0  0
   15.8373   -6.2869    0.0000 H   0  0  0  0  0  0  0  0  0  0  0  0
   16.0643   -5.4400    0.0000 H   0  0  0  0  0  0  0  0  0  0  0  0
   15.2173   -5.2131    0.0000 H   0  0  0  0  0  0  0  0  0  0  0  0
    2.0000    7.4400    0.0000 H   0  0  0  0  0  0  0  0  0  0  0  0
   16.0643   -7.4400    0.0000 H   0  0  0  0  0  0  0  0  0  0  0  0
    8.3437    2.6423    0.0000 H   0  0  0  0  0  0  0  0  0  0  0  0
    7.9451    3.3326    0.0000 H   0  0  0  0  0  0  0  0  0  0  0  0
    9.7206   -2.6423    0.0000 H   0  0  0  0  0  0  0  0  0  0  0  0
   10.1191   -3.3326    0.0000 H   0  0  0  0  0  0  0  0  0  0  0  0
    7.1225    1.8577    0.0000 H   0  0  0  0  0  0  0  0  0  0  0  0
    7.5210    1.1674    0.0000 H   0  0  0  0  0  0  0  0  0  0  0  0
   10.9417   -1.8577    0.0000 H   0  0  0  0  0  0  0  0  0  0  0  0
   10.5432   -1.1674    0.0000 H   0  0  0  0  0  0  0  0  0  0  0  0
    7.9885    0.3577    0.0000 H   0  0  0  0  0  0  0  0  0  0  0  0
    8.3871   -0.3326    0.0000 H   0  0  0  0  0  0  0  0  0  0  0  0
   10.0757   -0.3577    0.0000 H   0  0  0  0  0  0  0  0  0  0  0  0
    9.6772    0.3326    0.0000 H   0  0  0  0  0  0  0  0  0  0  0  0
  1 21  1  0  0  0  0
  1 79  1  0  0  0  0
  2 22  1  0  0  0  0
  2 80  1  0  0  0  0
  3 35  1  0  0  0  0
  3 37  1  0  0  0  0
  4 36  1  0  0  0  0
  4 38  1  0  0  0  0
  5 35  2  0  0  0  0
  6 36  2  0  0  0  0
  7 39  1  0  0  0  0
  7 41  1  0  0  0  0
  8 40  1  0  0  0  0
  8 42  1  0  0  0  0
  9 11  1  0  0  0  0
  9 13  1  0  0  0  0
  9 14  1  0  0  0  0
  9 15  1  0  0  0  0
 10 12  1  0  0  0  0
 10 16  1  0  0  0  0
 10 17  1  0  0  0  0
 10 18  1  0  0  0  0
 11 19  1  0  0  0  0
 11 21  2  0  0  0  0
 12 20  1  0  0  0  0
 12 22  2  0  0  0  0
 13 43  1  0  0  0  0
 13 44  1  0  0  0  0
 13 45  1  0  0  0  0
 14 46  1  0  0  0  0
 14 47  1  0  0  0  0
 14 48  1  0  0  0  0
 15 49  1  0  0  0  0
 15 50  1  0  0  0  0
 15 51  1  0  0  0  0
 16 52  1  0  0  0  0
 16 53  1  0  0  0  0
 16 54  1  0  0  0  0
 17 55  1  0  0  0  0
 17 56  1  0  0  0  0
 17 57  1  0  0  0  0
 18 58  1  0  0  0  0
 18 59  1  0  0  0  0
 18 60  1  0  0  0  0
 19 23  2  0  0  0  0
 19 61  1  0  0  0  0
 20 24  2  0  0  0  0
 20 62  1  0  0  0  0
 21 25  1  0  0  0  0
 22 26  1  0  0  0  0
 23 27  1  0  0  0  0
 23 29  1  0  0  0  0
 24 28  1  0  0  0  0
 24 30  1  0  0  0  0
 25 27  2  0  0  0  0
 25 33  1  0  0  0  0
 26 28  2  0  0  0  0
 26 34  1  0  0  0  0
 27 63  1  0  0  0  0
 28 64  1  0  0  0  0
 29 31  1  0  0  0  0
 29 65  1  0  0  0  0
 29 66  1  0  0  0  0
 30 32  1  0  0  0  0
 30 67  1  0  0  0  0
 30 68  1  0  0  0  0
 31 35  1  0  0  0  0
 31 69  1  0  0  0  0
 31 70  1  0  0  0  0
 32 36  1  0  0  0  0
 32 71  1  0  0  0  0
 32 72  1  0  0  0  0
 33 73  1  0  0  0  0
 33 74  1  0  0  0  0
 33 75  1  0  0  0  0
 34 76  1  0  0  0  0
 34 77  1  0  0  0  0
 34 78  1  0  0  0  0
 37 39  1  0  0  0  0
 37 81  1  0  0  0  0
 37 82  1  0  0  0  0
 38 40  1  0  0  0  0
 38 83  1  0  0  0  0
 38 84  1  0  0  0  0
 39 85  1  0  0  0  0
 39 86  1  0  0  0  0
 40 87  1  0  0  0  0
 40 88  1  0  0  0  0
 41 42  1  0  0  0  0
 41 89  1  0  0  0  0
 41 90  1  0  0  0  0
 42 91  1  0  0  0  0
 42 92  1  0  0  0  0
M  END
> <PUBCHEM_COMPOUND_CID>
91620

> <PUBCHEM_COMPOUND_CANONICALIZED>
1

> <PUBCHEM_CACTVS_COMPLEXITY>
734

> <PUBCHEM_CACTVS_HBOND_ACCEPTOR>
8

> <PUBCHEM_CACTVS_HBOND_DONOR>
2

> <PUBCHEM_CACTVS_ROTATABLE_BOND>
19

> <PUBCHEM_CACTVS_SUBSKEYS>
AAADcfB8PAAAAAAAAAAAAAAAAAAAAAAAAAAwYAAAAAAAAAABQAAAGgAACAAADgSgmAIyDoAABgCIAiDSCAACAAAgIAAAiAEECIgJJjKCERKCcAAkwBEKmAeIyOCPoAACAAAIAABAAAQAABAAAAAAAAAAAA==

> <PUBCHEM_IUPAC_OPENEYE_NAME>
2-[2-[2-[3-(3-tert-butyl-4-hydroxy-5-methyl-phenyl)propanoyloxy]ethoxy]ethoxy]ethyl 3-(3-tert-butyl-4-hydroxy-5-methyl-phenyl)propanoate

> <PUBCHEM_IUPAC_CAS_NAME>
3-(3-tert-butyl-4-hydroxy-5-methylphenyl)propanoic acid 2-[2-[2-[3-(3-tert-butyl-4-hydroxy-5-methylphenyl)-1-oxopropoxy]ethoxy]ethoxy]ethyl ester

> <PUBCHEM_IUPAC_NAME_MARKUP>
2-[2-[2-[3-(3-<I>tert</I>-butyl-4-hydroxy-5-methylphenyl)propanoyloxy]ethoxy]ethoxy]ethyl 3-(3-<I>tert</I>-butyl-4-hydroxy-5-methylphenyl)propanoate

> <PUBCHEM_IUPAC_NAME>
2-[2-[2-[3-(3-tert-butyl-4-hydroxy-5-methylphenyl)propanoyloxy]ethoxy]ethoxy]ethyl 3-(3-tert-butyl-4-hydroxy-5-methylphenyl)propanoate

> <PUBCHEM_IUPAC_SYSTEMATIC_NAME>
2-[2-[2-[3-(3-tert-butyl-5-methyl-4-oxidanyl-phenyl)propanoyloxy]ethoxy]ethoxy]ethyl 3-(3-tert-butyl-5-methyl-4-oxidanyl-phenyl)propanoate

> <PUBCHEM_IUPAC_TRADITIONAL_NAME>
3-(3-tert-butyl-4-hydroxy-5-methyl-phenyl)propionic acid 2-[2-[2-[3-(3-tert-butyl-4-hydroxy-5-methyl-phenyl)propanoyloxy]ethoxy]ethoxy]ethyl ester

> <PUBCHEM_IUPAC_INCHI>
InChI=1S/C34H50O8/c1-23-19-25(21-27(31(23)37)33(3,4)5)9-11-29(35)41-17-15-39-13-14-40-16-18-42-30(36)12-10-26-20-24(2)32(38)28(22-26)34(6,7)8/h19-22,37-38H,9-18H2,1-8H3

> <PUBCHEM_IUPAC_INCHIKEY>
QSRJVOOOWGXUDY-UHFFFAOYSA-N

> <PUBCHEM_XLOGP3_AA>
6.9

> <PUBCHEM_EXACT_MASS>
586.35056855

> <PUBCHEM_MOLECULAR_FORMULA>
C34H50O8

> <PUBCHEM_MOLECULAR_WEIGHT>
586.8

> <PUBCHEM_SMILES>
CC1=CC(=CC(=C1O)C(C)(C)C)CCC(=O)OCCOCCOCCOC(=O)CCC2=CC(=C(C(=C2)C)O)C(C)(C)C

> <PUBCHEM_OPENEYE_CAN_SMILES>
CC1=CC(=CC(=C1O)C(C)(C)C)CCC(=O)OCCOCCOCCOC(=O)CCC2=CC(=C(C(=C2)C)O)C(C)(C)C

> <PUBCHEM_OPENEYE_ISO_SMILES>
CC1=CC(=CC(=C1O)C(C)(C)C)CCC(=O)OCCOCCOCCOC(=O)CCC2=CC(=C(C(=C2)C)O)C(C)(C)C

> <PUBCHEM_CACTVS_TPSA>
112

> <PUBCHEM_MONOISOTOPIC_WEIGHT>
586.35056855

> <PUBCHEM_TOTAL_CHARGE>
0

> <PUBCHEM_HEAVY_ATOM_COUNT>
42

> <PUBCHEM_ATOM_DEF_STEREO_COUNT>
0

> <PUBCHEM_ATOM_UDEF_STEREO_COUNT>
0

> <PUBCHEM_BOND_DEF_STEREO_COUNT>
0

> <PUBCHEM_BOND_UDEF_STEREO_COUNT>
0

> <PUBCHEM_ISOTOPIC_ATOM_COUNT>
0

> <PUBCHEM_COMPONENT_COUNT>
1

> <PUBCHEM_CACTVS_TAUTO_COUNT>
-1

> <PUBCHEM_COORDINATE_TYPE>
1
5
255

> <PUBCHEM_BONDANNOTATIONS>
11  19  8
11  21  8
12  20  8
12  22  8
19  23  8
20  24  8
21  25  8
22  26  8
23  27  8
24  28  8
25  27  8
26  28  8

$$$$
