91831
  -OEChem-04042512322D

 66 67  0     0  0  0  0  0  0999 V2000
    6.3301   -0.5173    0.0000 C   0  0  0  0  0  0  0  0  0  0  0  0
    5.4641   -1.0173    0.0000 C   0  0  0  0  0  0  0  0  0  0  0  0
    6.3301    0.4827    0.0000 C   0  0  0  0  0  0  0  0  0  0  0  0
    5.4641   -2.0173    0.0000 C   0  0  0  0  0  0  0  0  0  0  0  0
    7.1962    0.9827    0.0000 C   0  0  0  0  0  0  0  0  0  0  0  0
    4.5981   -2.5173    0.0000 C   0  0  0  0  0  0  0  0  0  0  0  0
    7.1962    1.9827    0.0000 C   0  0  0  0  0  0  0  0  0  0  0  0
    4.5981   -3.5173    0.0000 C   0  0  0  0  0  0  0  0  0  0  0  0
    8.0622    2.4827    0.0000 C   0  0  0  0  0  0  0  0  0  0  0  0
    3.7320   -4.0173    0.0000 C   0  0  0  0  0  0  0  0  0  0  0  0
    8.0622    3.4827    0.0000 C   0  0  0  0  0  0  0  0  0  0  0  0
    3.7320   -5.0173    0.0000 C   0  0  0  0  0  0  0  0  0  0  0  0
    8.9282    3.9827    0.0000 C   0  0  0  0  0  0  0  0  0  0  0  0
    2.8660   -5.5173    0.0000 C   0  0  0  0  0  0  0  0  0  0  0  0
    8.9282    4.9827    0.0000 C   0  0  0  0  0  0  0  0  0  0  0  0
    2.8660   -6.5173    0.0000 C   0  0  0  0  0  0  0  0  0  0  0  0
    9.7942    5.4827    0.0000 C   0  0  0  0  0  0  0  0  0  0  0  0
    8.0622    5.4827    0.0000 C   0  0  0  0  0  0  0  0  0  0  0  0
    9.7942    6.4827    0.0000 C   0  0  0  0  0  0  0  0  0  0  0  0
    2.0000   -7.0173    0.0000 C   0  0  0  0  0  0  0  0  0  0  0  0
   10.6882    4.9480    0.0000 C   0  0  0  0  0  0  0  0  0  0  0  0
    8.0622    6.4827    0.0000 C   0  0  0  0  0  0  0  0  0  0  0  0
    8.9282    6.9827    0.0000 C   0  0  0  0  0  0  0  0  0  0  0  0
   10.6882    7.0173    0.0000 C   0  0  0  0  0  0  0  0  0  0  0  0
   11.5942    5.4618    0.0000 C   0  0  0  0  0  0  0  0  0  0  0  0
   11.5942    6.5035    0.0000 C   0  0  0  0  0  0  0  0  0  0  0  0
    6.5422   -1.0999    0.0000 H   0  0  0  0  0  0  0  0  0  0  0  0
    6.9407   -0.4097    0.0000 H   0  0  0  0  0  0  0  0  0  0  0  0
    5.2520   -0.4347    0.0000 H   0  0  0  0  0  0  0  0  0  0  0  0
    4.8535   -1.1250    0.0000 H   0  0  0  0  0  0  0  0  0  0  0  0
    6.1181    1.0653    0.0000 H   0  0  0  0  0  0  0  0  0  0  0  0
    5.7196    0.3750    0.0000 H   0  0  0  0  0  0  0  0  0  0  0  0
    5.6762   -2.5999    0.0000 H   0  0  0  0  0  0  0  0  0  0  0  0
    6.0747   -1.9097    0.0000 H   0  0  0  0  0  0  0  0  0  0  0  0
    7.4082    0.4001    0.0000 H   0  0  0  0  0  0  0  0  0  0  0  0
    7.8067    1.0903    0.0000 H   0  0  0  0  0  0  0  0  0  0  0  0
    4.3860   -1.9347    0.0000 H   0  0  0  0  0  0  0  0  0  0  0  0
    3.9875   -2.6250    0.0000 H   0  0  0  0  0  0  0  0  0  0  0  0
    6.9841    2.5653    0.0000 H   0  0  0  0  0  0  0  0  0  0  0  0
    6.5856    1.8750    0.0000 H   0  0  0  0  0  0  0  0  0  0  0  0
    4.8101   -4.0999    0.0000 H   0  0  0  0  0  0  0  0  0  0  0  0
    5.2087   -3.4097    0.0000 H   0  0  0  0  0  0  0  0  0  0  0  0
    8.2742    1.9001    0.0000 H   0  0  0  0  0  0  0  0  0  0  0  0
    8.6728    2.5903    0.0000 H   0  0  0  0  0  0  0  0  0  0  0  0
    3.5200   -3.4347    0.0000 H   0  0  0  0  0  0  0  0  0  0  0  0
    3.1215   -4.1250    0.0000 H   0  0  0  0  0  0  0  0  0  0  0  0
    7.8501    4.0653    0.0000 H   0  0  0  0  0  0  0  0  0  0  0  0
    7.4516    3.3750    0.0000 H   0  0  0  0  0  0  0  0  0  0  0  0
    3.9441   -5.5999    0.0000 H   0  0  0  0  0  0  0  0  0  0  0  0
    4.3426   -4.9097    0.0000 H   0  0  0  0  0  0  0  0  0  0  0  0
    9.1403    3.4001    0.0000 H   0  0  0  0  0  0  0  0  0  0  0  0
    9.5388    4.0903    0.0000 H   0  0  0  0  0  0  0  0  0  0  0  0
    2.6540   -4.9347    0.0000 H   0  0  0  0  0  0  0  0  0  0  0  0
    2.2554   -5.6250    0.0000 H   0  0  0  0  0  0  0  0  0  0  0  0
    3.0781   -7.0999    0.0000 H   0  0  0  0  0  0  0  0  0  0  0  0
    3.4766   -6.4097    0.0000 H   0  0  0  0  0  0  0  0  0  0  0  0
    7.5252    5.1727    0.0000 H   0  0  0  0  0  0  0  0  0  0  0  0
    1.6900   -6.4804    0.0000 H   0  0  0  0  0  0  0  0  0  0  0  0
    1.4631   -7.3273    0.0000 H   0  0  0  0  0  0  0  0  0  0  0  0
    2.3100   -7.5543    0.0000 H   0  0  0  0  0  0  0  0  0  0  0  0
   10.6810    4.3280    0.0000 H   0  0  0  0  0  0  0  0  0  0  0  0
    7.5252    6.7927    0.0000 H   0  0  0  0  0  0  0  0  0  0  0  0
    8.9282    7.6027    0.0000 H   0  0  0  0  0  0  0  0  0  0  0  0
   10.6810    7.6373    0.0000 H   0  0  0  0  0  0  0  0  0  0  0  0
   12.1300    5.1498    0.0000 H   0  0  0  0  0  0  0  0  0  0  0  0
   12.1300    6.8156    0.0000 H   0  0  0  0  0  0  0  0  0  0  0  0
  1  2  1  0  0  0  0
  1  3  1  0  0  0  0
  1 27  1  0  0  0  0
  1 28  1  0  0  0  0
  2  4  1  0  0  0  0
  2 29  1  0  0  0  0
  2 30  1  0  0  0  0
  3  5  1  0  0  0  0
  3 31  1  0  0  0  0
  3 32  1  0  0  0  0
  4  6  1  0  0  0  0
  4 33  1  0  0  0  0
  4 34  1  0  0  0  0
  5  7  1  0  0  0  0
  5 35  1  0  0  0  0
  5 36  1  0  0  0  0
  6  8  1  0  0  0  0
  6 37  1  0  0  0  0
  6 38  1  0  0  0  0
  7  9  1  0  0  0  0
  7 39  1  0  0  0  0
  7 40  1  0  0  0  0
  8 10  1  0  0  0  0
  8 41  1  0  0  0  0
  8 42  1  0  0  0  0
  9 11  1  0  0  0  0
  9 43  1  0  0  0  0
  9 44  1  0  0  0  0
 10 12  1  0  0  0  0
 10 45  1  0  0  0  0
 10 46  1  0  0  0  0
 11 13  1  0  0  0  0
 11 47  1  0  0  0  0
 11 48  1  0  0  0  0
 12 14  1  0  0  0  0
 12 49  1  0  0  0  0
 12 50  1  0  0  0  0
 13 15  1  0  0  0  0
 13 51  1  0  0  0  0
 13 52  1  0  0  0  0
 14 16  1  0  0  0  0
 14 53  1  0  0  0  0
 14 54  1  0  0  0  0
 15 17  1  0  0  0  0
 15 18  2  0  0  0  0
 16 20  1  0  0  0  0
 16 55  1  0  0  0  0
 16 56  1  0  0  0  0
 17 19  1  0  0  0  0
 17 21  2  0  0  0  0
 18 22  1  0  0  0  0
 18 57  1  0  0  0  0
 19 23  1  0  0  0  0
 19 24  2  0  0  0  0
 20 58  1  0  0  0  0
 20 59  1  0  0  0  0
 20 60  1  0  0  0  0
 21 25  1  0  0  0  0
 21 61  1  0  0  0  0
 22 23  2  0  0  0  0
 22 62  1  0  0  0  0
 23 63  1  0  0  0  0
 24 26  1  0  0  0  0
 24 64  1  0  0  0  0
 25 26  2  0  0  0  0
 25 65  1  0  0  0  0
 26 66  1  0  0  0  0
M  END
> <PUBCHEM_COMPOUND_CID>
91831

> <PUBCHEM_COMPOUND_CANONICALIZED>
1

> <PUBCHEM_CACTVS_COMPLEXITY>
307

> <PUBCHEM_CACTVS_HBOND_ACCEPTOR>
0

> <PUBCHEM_CACTVS_HBOND_DONOR>
0

> <PUBCHEM_CACTVS_ROTATABLE_BOND>
15

> <PUBCHEM_CACTVS_SUBSKEYS>
AAADcfB4AAAAAAAAAAAAAAAAAAAAAAAAAAAwYAAAAAAAAADBUAAAGAAAAAAADACAGAAyAMAAAACAAiBCAAACAAAgAAAIiAAAAIgIICKAERCAIAAggAAIiAcAgMAOgAACAAAQAAAAAAQAACAAAAAAAAAAAA==

> <PUBCHEM_IUPAC_OPENEYE_NAME>
1-hexadecylnaphthalene

> <PUBCHEM_IUPAC_CAS_NAME>
1-hexadecylnaphthalene

> <PUBCHEM_IUPAC_NAME_MARKUP>
1-hexadecylnaphthalene

> <PUBCHEM_IUPAC_NAME>
1-hexadecylnaphthalene

> <PUBCHEM_IUPAC_SYSTEMATIC_NAME>
1-hexadecylnaphthalene

> <PUBCHEM_IUPAC_TRADITIONAL_NAME>
1-cetylnaphthalene

> <PUBCHEM_IUPAC_INCHI>
InChI=1S/C26H40/c1-2-3-4-5-6-7-8-9-10-11-12-13-14-15-19-24-21-18-22-25-20-16-17-23-26(24)25/h16-18,20-23H,2-15,19H2,1H3

> <PUBCHEM_IUPAC_INCHIKEY>
IJAFYYIBMJSQLI-UHFFFAOYSA-N

> <PUBCHEM_XLOGP3>
12

> <PUBCHEM_EXACT_MASS>
352.313001276

> <PUBCHEM_MOLECULAR_FORMULA>
C26H40

> <PUBCHEM_MOLECULAR_WEIGHT>
352.6

> <PUBCHEM_SMILES>
CCCCCCCCCCCCCCCCC1=CC=CC2=CC=CC=C21

> <PUBCHEM_OPENEYE_CAN_SMILES>
CCCCCCCCCCCCCCCCC1=CC=CC2=CC=CC=C21

> <PUBCHEM_OPENEYE_ISO_SMILES>
CCCCCCCCCCCCCCCCC1=CC=CC2=CC=CC=C21

> <PUBCHEM_CACTVS_TPSA>
0

> <PUBCHEM_MONOISOTOPIC_WEIGHT>
352.313001276

> <PUBCHEM_TOTAL_CHARGE>
0

> <PUBCHEM_HEAVY_ATOM_COUNT>
26

> <PUBCHEM_ATOM_DEF_STEREO_COUNT>
0

> <PUBCHEM_ATOM_UDEF_STEREO_COUNT>
0

> <PUBCHEM_BOND_DEF_STEREO_COUNT>
0

> <PUBCHEM_BOND_UDEF_STEREO_COUNT>
0

> <PUBCHEM_ISOTOPIC_ATOM_COUNT>
0

> <PUBCHEM_COMPONENT_COUNT>
1

> <PUBCHEM_CACTVS_TAUTO_COUNT>
-1

> <PUBCHEM_COORDINATE_TYPE>
1
5
255

> <PUBCHEM_BONDANNOTATIONS>
15  17  8
15  18  8
17  19  8
17  21  8
18  22  8
19  23  8
19  24  8
21  25  8
22  23  8
24  26  8
25  26  8

$$$$
