91832
  -OEChem-04042512322D

 72 73  0     0  0  0  0  0  0999 V2000
    6.3301   -0.2673    0.0000 C   0  0  0  0  0  0  0  0  0  0  0  0
    6.3301   -1.2673    0.0000 C   0  0  0  0  0  0  0  0  0  0  0  0
    7.1962    0.2327    0.0000 C   0  0  0  0  0  0  0  0  0  0  0  0
    5.4641   -1.7673    0.0000 C   0  0  0  0  0  0  0  0  0  0  0  0
    7.1962    1.2327    0.0000 C   0  0  0  0  0  0  0  0  0  0  0  0
    5.4641   -2.7673    0.0000 C   0  0  0  0  0  0  0  0  0  0  0  0
    8.0622    1.7327    0.0000 C   0  0  0  0  0  0  0  0  0  0  0  0
    4.5981   -3.2673    0.0000 C   0  0  0  0  0  0  0  0  0  0  0  0
    8.0622    2.7327    0.0000 C   0  0  0  0  0  0  0  0  0  0  0  0
    4.5981   -4.2673    0.0000 C   0  0  0  0  0  0  0  0  0  0  0  0
    8.9282    3.2327    0.0000 C   0  0  0  0  0  0  0  0  0  0  0  0
    3.7320   -4.7673    0.0000 C   0  0  0  0  0  0  0  0  0  0  0  0
    8.9282    4.2327    0.0000 C   0  0  0  0  0  0  0  0  0  0  0  0
    3.7320   -5.7673    0.0000 C   0  0  0  0  0  0  0  0  0  0  0  0
    9.7942    4.7327    0.0000 C   0  0  0  0  0  0  0  0  0  0  0  0
    2.8660   -6.2673    0.0000 C   0  0  0  0  0  0  0  0  0  0  0  0
    9.7942    5.7327    0.0000 C   0  0  0  0  0  0  0  0  0  0  0  0
    2.8660   -7.2673    0.0000 C   0  0  0  0  0  0  0  0  0  0  0  0
   10.6603    6.2327    0.0000 C   0  0  0  0  0  0  0  0  0  0  0  0
    8.9282    6.2327    0.0000 C   0  0  0  0  0  0  0  0  0  0  0  0
   10.6603    7.2327    0.0000 C   0  0  0  0  0  0  0  0  0  0  0  0
    2.0000   -7.7673    0.0000 C   0  0  0  0  0  0  0  0  0  0  0  0
   11.5542    5.6980    0.0000 C   0  0  0  0  0  0  0  0  0  0  0  0
    8.9282    7.2327    0.0000 C   0  0  0  0  0  0  0  0  0  0  0  0
    9.7942    7.7327    0.0000 C   0  0  0  0  0  0  0  0  0  0  0  0
   11.5542    7.7673    0.0000 C   0  0  0  0  0  0  0  0  0  0  0  0
   12.4603    6.2118    0.0000 C   0  0  0  0  0  0  0  0  0  0  0  0
   12.4603    7.2535    0.0000 C   0  0  0  0  0  0  0  0  0  0  0  0
    6.1181    0.3153    0.0000 H   0  0  0  0  0  0  0  0  0  0  0  0
    5.7196   -0.3750    0.0000 H   0  0  0  0  0  0  0  0  0  0  0  0
    6.5422   -1.8499    0.0000 H   0  0  0  0  0  0  0  0  0  0  0  0
    6.9407   -1.1597    0.0000 H   0  0  0  0  0  0  0  0  0  0  0  0
    7.4082   -0.3499    0.0000 H   0  0  0  0  0  0  0  0  0  0  0  0
    7.8067    0.3403    0.0000 H   0  0  0  0  0  0  0  0  0  0  0  0
    5.2520   -1.1847    0.0000 H   0  0  0  0  0  0  0  0  0  0  0  0
    4.8535   -1.8750    0.0000 H   0  0  0  0  0  0  0  0  0  0  0  0
    6.9841    1.8153    0.0000 H   0  0  0  0  0  0  0  0  0  0  0  0
    6.5856    1.1250    0.0000 H   0  0  0  0  0  0  0  0  0  0  0  0
    5.6762   -3.3499    0.0000 H   0  0  0  0  0  0  0  0  0  0  0  0
    6.0747   -2.6597    0.0000 H   0  0  0  0  0  0  0  0  0  0  0  0
    8.2742    1.1501    0.0000 H   0  0  0  0  0  0  0  0  0  0  0  0
    8.6728    1.8403    0.0000 H   0  0  0  0  0  0  0  0  0  0  0  0
    4.3860   -2.6847    0.0000 H   0  0  0  0  0  0  0  0  0  0  0  0
    3.9875   -3.3750    0.0000 H   0  0  0  0  0  0  0  0  0  0  0  0
    7.8501    3.3153    0.0000 H   0  0  0  0  0  0  0  0  0  0  0  0
    7.4516    2.6250    0.0000 H   0  0  0  0  0  0  0  0  0  0  0  0
    4.8101   -4.8499    0.0000 H   0  0  0  0  0  0  0  0  0  0  0  0
    5.2087   -4.1597    0.0000 H   0  0  0  0  0  0  0  0  0  0  0  0
    9.1403    2.6501    0.0000 H   0  0  0  0  0  0  0  0  0  0  0  0
    9.5388    3.3403    0.0000 H   0  0  0  0  0  0  0  0  0  0  0  0
    3.5200   -4.1847    0.0000 H   0  0  0  0  0  0  0  0  0  0  0  0
    3.1215   -4.8750    0.0000 H   0  0  0  0  0  0  0  0  0  0  0  0
    8.7162    4.8153    0.0000 H   0  0  0  0  0  0  0  0  0  0  0  0
    8.3176    4.1250    0.0000 H   0  0  0  0  0  0  0  0  0  0  0  0
    3.9441   -6.3499    0.0000 H   0  0  0  0  0  0  0  0  0  0  0  0
    4.3426   -5.6597    0.0000 H   0  0  0  0  0  0  0  0  0  0  0  0
   10.0063    4.1501    0.0000 H   0  0  0  0  0  0  0  0  0  0  0  0
   10.4048    4.8403    0.0000 H   0  0  0  0  0  0  0  0  0  0  0  0
    2.6540   -5.6847    0.0000 H   0  0  0  0  0  0  0  0  0  0  0  0
    2.2554   -6.3750    0.0000 H   0  0  0  0  0  0  0  0  0  0  0  0
    3.0781   -7.8499    0.0000 H   0  0  0  0  0  0  0  0  0  0  0  0
    3.4766   -7.1597    0.0000 H   0  0  0  0  0  0  0  0  0  0  0  0
    8.3913    5.9227    0.0000 H   0  0  0  0  0  0  0  0  0  0  0  0
    1.6900   -7.2304    0.0000 H   0  0  0  0  0  0  0  0  0  0  0  0
    1.4631   -8.0773    0.0000 H   0  0  0  0  0  0  0  0  0  0  0  0
    2.3100   -8.3043    0.0000 H   0  0  0  0  0  0  0  0  0  0  0  0
   11.5470    5.0780    0.0000 H   0  0  0  0  0  0  0  0  0  0  0  0
    8.3913    7.5427    0.0000 H   0  0  0  0  0  0  0  0  0  0  0  0
    9.7942    8.3527    0.0000 H   0  0  0  0  0  0  0  0  0  0  0  0
   11.5470    8.3873    0.0000 H   0  0  0  0  0  0  0  0  0  0  0  0
   12.9960    5.8998    0.0000 H   0  0  0  0  0  0  0  0  0  0  0  0
   12.9960    7.5656    0.0000 H   0  0  0  0  0  0  0  0  0  0  0  0
  1  2  1  0  0  0  0
  1  3  1  0  0  0  0
  1 29  1  0  0  0  0
  1 30  1  0  0  0  0
  2  4  1  0  0  0  0
  2 31  1  0  0  0  0
  2 32  1  0  0  0  0
  3  5  1  0  0  0  0
  3 33  1  0  0  0  0
  3 34  1  0  0  0  0
  4  6  1  0  0  0  0
  4 35  1  0  0  0  0
  4 36  1  0  0  0  0
  5  7  1  0  0  0  0
  5 37  1  0  0  0  0
  5 38  1  0  0  0  0
  6  8  1  0  0  0  0
  6 39  1  0  0  0  0
  6 40  1  0  0  0  0
  7  9  1  0  0  0  0
  7 41  1  0  0  0  0
  7 42  1  0  0  0  0
  8 10  1  0  0  0  0
  8 43  1  0  0  0  0
  8 44  1  0  0  0  0
  9 11  1  0  0  0  0
  9 45  1  0  0  0  0
  9 46  1  0  0  0  0
 10 12  1  0  0  0  0
 10 47  1  0  0  0  0
 10 48  1  0  0  0  0
 11 13  1  0  0  0  0
 11 49  1  0  0  0  0
 11 50  1  0  0  0  0
 12 14  1  0  0  0  0
 12 51  1  0  0  0  0
 12 52  1  0  0  0  0
 13 15  1  0  0  0  0
 13 53  1  0  0  0  0
 13 54  1  0  0  0  0
 14 16  1  0  0  0  0
 14 55  1  0  0  0  0
 14 56  1  0  0  0  0
 15 17  1  0  0  0  0
 15 57  1  0  0  0  0
 15 58  1  0  0  0  0
 16 18  1  0  0  0  0
 16 59  1  0  0  0  0
 16 60  1  0  0  0  0
 17 19  1  0  0  0  0
 17 20  2  0  0  0  0
 18 22  1  0  0  0  0
 18 61  1  0  0  0  0
 18 62  1  0  0  0  0
 19 21  1  0  0  0  0
 19 23  2  0  0  0  0
 20 24  1  0  0  0  0
 20 63  1  0  0  0  0
 21 25  1  0  0  0  0
 21 26  2  0  0  0  0
 22 64  1  0  0  0  0
 22 65  1  0  0  0  0
 22 66  1  0  0  0  0
 23 27  1  0  0  0  0
 23 67  1  0  0  0  0
 24 25  2  0  0  0  0
 24 68  1  0  0  0  0
 25 69  1  0  0  0  0
 26 28  1  0  0  0  0
 26 70  1  0  0  0  0
 27 28  2  0  0  0  0
 27 71  1  0  0  0  0
 28 72  1  0  0  0  0
M  END
> <PUBCHEM_COMPOUND_CID>
91832

> <PUBCHEM_COMPOUND_CANONICALIZED>
1

> <PUBCHEM_CACTVS_COMPLEXITY>
333

> <PUBCHEM_CACTVS_HBOND_ACCEPTOR>
0

> <PUBCHEM_CACTVS_HBOND_DONOR>
0

> <PUBCHEM_CACTVS_ROTATABLE_BOND>
17

> <PUBCHEM_CACTVS_SUBSKEYS>
AAADcfB4AAAAAAAAAAAAAAAAAAAAAAAAAAAwYAAAAAAAAADBUAAAGAAAAAAADACAGAAyAMAAAACAAiBCAAACAAAgAAAIiAAAAIgIICKAERCAIAAggAAIiAcAgMAOgAACAAAQAAAAAAQAACAAAAAAAAAAAA==

> <PUBCHEM_IUPAC_OPENEYE_NAME>
1-octadecylnaphthalene

> <PUBCHEM_IUPAC_CAS_NAME>
1-octadecylnaphthalene

> <PUBCHEM_IUPAC_NAME_MARKUP>
1-octadecylnaphthalene

> <PUBCHEM_IUPAC_NAME>
1-octadecylnaphthalene

> <PUBCHEM_IUPAC_SYSTEMATIC_NAME>
1-octadecylnaphthalene

> <PUBCHEM_IUPAC_TRADITIONAL_NAME>
1-stearylnaphthalene

> <PUBCHEM_IUPAC_INCHI>
InChI=1S/C28H44/c1-2-3-4-5-6-7-8-9-10-11-12-13-14-15-16-17-21-26-23-20-24-27-22-18-19-25-28(26)27/h18-20,22-25H,2-17,21H2,1H3

> <PUBCHEM_IUPAC_INCHIKEY>
DKTSRTYLZGWAIT-UHFFFAOYSA-N

> <PUBCHEM_XLOGP3>
13.1

> <PUBCHEM_EXACT_MASS>
380.344301404

> <PUBCHEM_MOLECULAR_FORMULA>
C28H44

> <PUBCHEM_MOLECULAR_WEIGHT>
380.6

> <PUBCHEM_SMILES>
CCCCCCCCCCCCCCCCCCC1=CC=CC2=CC=CC=C21

> <PUBCHEM_OPENEYE_CAN_SMILES>
CCCCCCCCCCCCCCCCCCC1=CC=CC2=CC=CC=C21

> <PUBCHEM_OPENEYE_ISO_SMILES>
CCCCCCCCCCCCCCCCCCC1=CC=CC2=CC=CC=C21

> <PUBCHEM_CACTVS_TPSA>
0

> <PUBCHEM_MONOISOTOPIC_WEIGHT>
380.344301404

> <PUBCHEM_TOTAL_CHARGE>
0

> <PUBCHEM_HEAVY_ATOM_COUNT>
28

> <PUBCHEM_ATOM_DEF_STEREO_COUNT>
0

> <PUBCHEM_ATOM_UDEF_STEREO_COUNT>
0

> <PUBCHEM_BOND_DEF_STEREO_COUNT>
0

> <PUBCHEM_BOND_UDEF_STEREO_COUNT>
0

> <PUBCHEM_ISOTOPIC_ATOM_COUNT>
0

> <PUBCHEM_COMPONENT_COUNT>
1

> <PUBCHEM_CACTVS_TAUTO_COUNT>
-1

> <PUBCHEM_COORDINATE_TYPE>
1
5
255

> <PUBCHEM_BONDANNOTATIONS>
17  19  8
17  20  8
19  21  8
19  23  8
20  24  8
21  25  8
21  26  8
23  27  8
24  25  8
26  28  8
27  28  8

$$$$
