92344
  -OEChem-04042506022D

 78 78  0     1  0  0  0  0  0999 V2000
   11.5263   -0.5000    0.0000 O   0  0  0  0  0  0  0  0  0  0  0  0
    8.0622   -2.5000    0.0000 O   0  0  0  0  0  0  0  0  0  0  0  0
    9.7942   -0.5000    0.0000 O   0  0  0  0  0  0  0  0  0  0  0  0
    8.9282   -1.0000    0.0000 O   0  0  0  0  0  0  0  0  0  0  0  0
   12.3923    1.0000    0.0000 C   0  0  3  0  0  0  0  0  0  0  0  0
    6.3301   -2.5000    0.0000 C   0  0  3  0  0  0  0  0  0  0  0  0
   12.3923    2.0000    0.0000 C   0  0  0  0  0  0  0  0  0  0  0  0
    5.4641   -2.0000    0.0000 C   0  0  0  0  0  0  0  0  0  0  0  0
   13.2583    0.5000    0.0000 C   0  0  0  0  0  0  0  0  0  0  0  0
    6.3301   -3.5000    0.0000 C   0  0  0  0  0  0  0  0  0  0  0  0
   13.2583    2.5000    0.0000 C   0  0  0  0  0  0  0  0  0  0  0  0
    4.5981   -2.5000    0.0000 C   0  0  0  0  0  0  0  0  0  0  0  0
   11.5263    0.5000    0.0000 C   0  0  0  0  0  0  0  0  0  0  0  0
    7.1962   -2.0000    0.0000 C   0  0  0  0  0  0  0  0  0  0  0  0
   13.2583    3.5000    0.0000 C   0  0  0  0  0  0  0  0  0  0  0  0
    3.7320   -2.0000    0.0000 C   0  0  0  0  0  0  0  0  0  0  0  0
   14.1244    1.0000    0.0000 C   0  0  0  0  0  0  0  0  0  0  0  0
    5.4641   -4.0000    0.0000 C   0  0  0  0  0  0  0  0  0  0  0  0
   14.1244    4.0000    0.0000 C   0  0  0  0  0  0  0  0  0  0  0  0
    2.8660   -2.5000    0.0000 C   0  0  0  0  0  0  0  0  0  0  0  0
   14.9904    0.5000    0.0000 C   0  0  0  0  0  0  0  0  0  0  0  0
    5.4641   -5.0000    0.0000 C   0  0  0  0  0  0  0  0  0  0  0  0
   14.1244    5.0000    0.0000 C   0  0  0  0  0  0  0  0  0  0  0  0
    2.0000   -2.0000    0.0000 C   0  0  0  0  0  0  0  0  0  0  0  0
   10.6603   -1.0000    0.0000 C   0  0  0  0  0  0  0  0  0  0  0  0
    8.9282   -2.0000    0.0000 C   0  0  0  0  0  0  0  0  0  0  0  0
   10.6603   -2.0000    0.0000 C   0  0  0  0  0  0  0  0  0  0  0  0
    9.7942   -2.5000    0.0000 C   0  0  0  0  0  0  0  0  0  0  0  0
   11.5263   -2.5000    0.0000 C   0  0  0  0  0  0  0  0  0  0  0  0
    9.7942   -3.5000    0.0000 C   0  0  0  0  0  0  0  0  0  0  0  0
   11.5263   -3.5000    0.0000 C   0  0  0  0  0  0  0  0  0  0  0  0
   10.6603   -4.0000    0.0000 C   0  0  0  0  0  0  0  0  0  0  0  0
   11.8554    1.3100    0.0000 H   0  0  0  0  0  0  0  0  0  0  0  0
    6.8671   -2.8100    0.0000 H   0  0  0  0  0  0  0  0  0  0  0  0
   12.1803    2.5826    0.0000 H   0  0  0  0  0  0  0  0  0  0  0  0
   11.7817    1.8923    0.0000 H   0  0  0  0  0  0  0  0  0  0  0  0
    5.8626   -1.5250    0.0000 H   0  0  0  0  0  0  0  0  0  0  0  0
    5.0656   -1.5250    0.0000 H   0  0  0  0  0  0  0  0  0  0  0  0
   12.8598    0.0251    0.0000 H   0  0  0  0  0  0  0  0  0  0  0  0
   13.6569    0.0251    0.0000 H   0  0  0  0  0  0  0  0  0  0  0  0
    6.5422   -4.0826    0.0000 H   0  0  0  0  0  0  0  0  0  0  0  0
    6.9407   -3.3923    0.0000 H   0  0  0  0  0  0  0  0  0  0  0  0
   13.4704    1.9174    0.0000 H   0  0  0  0  0  0  0  0  0  0  0  0
   13.8689    2.6077    0.0000 H   0  0  0  0  0  0  0  0  0  0  0  0
    4.1996   -2.9750    0.0000 H   0  0  0  0  0  0  0  0  0  0  0  0
    4.9966   -2.9750    0.0000 H   0  0  0  0  0  0  0  0  0  0  0  0
   11.3142    1.0826    0.0000 H   0  0  0  0  0  0  0  0  0  0  0  0
   10.9157    0.3923    0.0000 H   0  0  0  0  0  0  0  0  0  0  0  0
    7.5947   -1.5250    0.0000 H   0  0  0  0  0  0  0  0  0  0  0  0
    6.7976   -1.5250    0.0000 H   0  0  0  0  0  0  0  0  0  0  0  0
   13.0463    4.0826    0.0000 H   0  0  0  0  0  0  0  0  0  0  0  0
   12.6477    3.3923    0.0000 H   0  0  0  0  0  0  0  0  0  0  0  0
    4.1306   -1.5250    0.0000 H   0  0  0  0  0  0  0  0  0  0  0  0
    3.3335   -1.5250    0.0000 H   0  0  0  0  0  0  0  0  0  0  0  0
   14.5229    1.4750    0.0000 H   0  0  0  0  0  0  0  0  0  0  0  0
   13.7258    1.4750    0.0000 H   0  0  0  0  0  0  0  0  0  0  0  0
    5.2520   -3.4174    0.0000 H   0  0  0  0  0  0  0  0  0  0  0  0
    4.8535   -4.1077    0.0000 H   0  0  0  0  0  0  0  0  0  0  0  0
   14.3364    3.4174    0.0000 H   0  0  0  0  0  0  0  0  0  0  0  0
   14.7349    4.1077    0.0000 H   0  0  0  0  0  0  0  0  0  0  0  0
    2.4675   -2.9750    0.0000 H   0  0  0  0  0  0  0  0  0  0  0  0
    3.2646   -2.9750    0.0000 H   0  0  0  0  0  0  0  0  0  0  0  0
   14.6804   -0.0369    0.0000 H   0  0  0  0  0  0  0  0  0  0  0  0
   15.5273    0.1900    0.0000 H   0  0  0  0  0  0  0  0  0  0  0  0
   15.3004    1.0369    0.0000 H   0  0  0  0  0  0  0  0  0  0  0  0
    4.8441   -5.0000    0.0000 H   0  0  0  0  0  0  0  0  0  0  0  0
    5.4641   -5.6200    0.0000 H   0  0  0  0  0  0  0  0  0  0  0  0
    6.0841   -5.0000    0.0000 H   0  0  0  0  0  0  0  0  0  0  0  0
   14.7444    5.0000    0.0000 H   0  0  0  0  0  0  0  0  0  0  0  0
   14.1244    5.6200    0.0000 H   0  0  0  0  0  0  0  0  0  0  0  0
   13.5044    5.0000    0.0000 H   0  0  0  0  0  0  0  0  0  0  0  0
    2.3100   -1.4631    0.0000 H   0  0  0  0  0  0  0  0  0  0  0  0
    1.4631   -1.6900    0.0000 H   0  0  0  0  0  0  0  0  0  0  0  0
    1.6900   -2.5369    0.0000 H   0  0  0  0  0  0  0  0  0  0  0  0
   12.0632   -2.1900    0.0000 H   0  0  0  0  0  0  0  0  0  0  0  0
    9.2573   -3.8100    0.0000 H   0  0  0  0  0  0  0  0  0  0  0  0
   12.0632   -3.8100    0.0000 H   0  0  0  0  0  0  0  0  0  0  0  0
   10.6603   -4.6200    0.0000 H   0  0  0  0  0  0  0  0  0  0  0  0
  1 13  1  0  0  0  0
  1 25  1  0  0  0  0
  2 14  1  0  0  0  0
  2 26  1  0  0  0  0
  3 25  2  0  0  0  0
  4 26  2  0  0  0  0
  5  7  1  0  0  0  0
  5  9  1  0  0  0  0
  5 13  1  0  0  0  0
  5 33  1  0  0  0  0
  6  8  1  0  0  0  0
  6 10  1  0  0  0  0
  6 14  1  0  0  0  0
  6 34  1  0  0  0  0
  7 11  1  0  0  0  0
  7 35  1  0  0  0  0
  7 36  1  0  0  0  0
  8 12  1  0  0  0  0
  8 37  1  0  0  0  0
  8 38  1  0  0  0  0
  9 17  1  0  0  0  0
  9 39  1  0  0  0  0
  9 40  1  0  0  0  0
 10 18  1  0  0  0  0
 10 41  1  0  0  0  0
 10 42  1  0  0  0  0
 11 15  1  0  0  0  0
 11 43  1  0  0  0  0
 11 44  1  0  0  0  0
 12 16  1  0  0  0  0
 12 45  1  0  0  0  0
 12 46  1  0  0  0  0
 13 47  1  0  0  0  0
 13 48  1  0  0  0  0
 14 49  1  0  0  0  0
 14 50  1  0  0  0  0
 15 19  1  0  0  0  0
 15 51  1  0  0  0  0
 15 52  1  0  0  0  0
 16 20  1  0  0  0  0
 16 53  1  0  0  0  0
 16 54  1  0  0  0  0
 17 21  1  0  0  0  0
 17 55  1  0  0  0  0
 17 56  1  0  0  0  0
 18 22  1  0  0  0  0
 18 57  1  0  0  0  0
 18 58  1  0  0  0  0
 19 23  1  0  0  0  0
 19 59  1  0  0  0  0
 19 60  1  0  0  0  0
 20 24  1  0  0  0  0
 20 61  1  0  0  0  0
 20 62  1  0  0  0  0
 21 63  1  0  0  0  0
 21 64  1  0  0  0  0
 21 65  1  0  0  0  0
 22 66  1  0  0  0  0
 22 67  1  0  0  0  0
 22 68  1  0  0  0  0
 23 69  1  0  0  0  0
 23 70  1  0  0  0  0
 23 71  1  0  0  0  0
 24 72  1  0  0  0  0
 24 73  1  0  0  0  0
 24 74  1  0  0  0  0
 25 27  1  0  0  0  0
 26 28  1  0  0  0  0
 27 28  1  0  0  0  0
 27 29  2  0  0  0  0
 28 30  2  0  0  0  0
 29 31  1  0  0  0  0
 29 75  1  0  0  0  0
 30 32  1  0  0  0  0
 30 76  1  0  0  0  0
 31 32  2  0  0  0  0
 31 77  1  0  0  0  0
 32 78  1  0  0  0  0
M  END
> <PUBCHEM_COMPOUND_CID>
92344

> <PUBCHEM_COMPOUND_CANONICALIZED>
1

> <PUBCHEM_CACTVS_COMPLEXITY>
446

> <PUBCHEM_CACTVS_HBOND_ACCEPTOR>
4

> <PUBCHEM_CACTVS_HBOND_DONOR>
0

> <PUBCHEM_CACTVS_ROTATABLE_BOND>
20

> <PUBCHEM_CACTVS_SUBSKEYS>
AAADcfB4OAAAAAAAAAAAAAAAAAAAAAAAAAAwAAAAAAAAAAABAAAAGgAAAAAADQCgmAIyCIAABACIAiDSCAACAAAkAAAIiAEACMgIJjKANRiCMQAkwAEIqYfLyOCOgAAAAAAQAAAAAAAAACAAAAAAAAAAAA==

> <PUBCHEM_IUPAC_OPENEYE_NAME>
bis(2-propylheptyl) benzene-1,2-dicarboxylate

> <PUBCHEM_IUPAC_CAS_NAME>
benzene-1,2-dicarboxylic acid bis(2-propylheptyl) ester

> <PUBCHEM_IUPAC_NAME_MARKUP>
bis(2-propylheptyl) benzene-1,2-dicarboxylate

> <PUBCHEM_IUPAC_NAME>
bis(2-propylheptyl) benzene-1,2-dicarboxylate

> <PUBCHEM_IUPAC_SYSTEMATIC_NAME>
bis(2-propylheptyl) benzene-1,2-dicarboxylate

> <PUBCHEM_IUPAC_TRADITIONAL_NAME>
benzene-1,2-dicarboxylic acid bis(2-propylheptyl) ester

> <PUBCHEM_IUPAC_INCHI>
InChI=1S/C28H46O4/c1-5-9-11-17-23(15-7-3)21-31-27(29)25-19-13-14-20-26(25)28(30)32-22-24(16-8-4)18-12-10-6-2/h13-14,19-20,23-24H,5-12,15-18,21-22H2,1-4H3

> <PUBCHEM_IUPAC_INCHIKEY>
MTYUOIVEVPTXFX-UHFFFAOYSA-N

> <PUBCHEM_XLOGP3>
9.6

> <PUBCHEM_EXACT_MASS>
446.33960994

> <PUBCHEM_MOLECULAR_FORMULA>
C28H46O4

> <PUBCHEM_MOLECULAR_WEIGHT>
446.7

> <PUBCHEM_SMILES>
CCCCCC(CCC)COC(=O)C1=CC=CC=C1C(=O)OCC(CCC)CCCCC

> <PUBCHEM_OPENEYE_CAN_SMILES>
CCCCCC(CCC)COC(=O)C1=CC=CC=C1C(=O)OCC(CCC)CCCCC

> <PUBCHEM_OPENEYE_ISO_SMILES>
CCCCCC(CCC)COC(=O)C1=CC=CC=C1C(=O)OCC(CCC)CCCCC

> <PUBCHEM_CACTVS_TPSA>
52.6

> <PUBCHEM_MONOISOTOPIC_WEIGHT>
446.33960994

> <PUBCHEM_TOTAL_CHARGE>
0

> <PUBCHEM_HEAVY_ATOM_COUNT>
32

> <PUBCHEM_ATOM_DEF_STEREO_COUNT>
0

> <PUBCHEM_ATOM_UDEF_STEREO_COUNT>
2

> <PUBCHEM_BOND_DEF_STEREO_COUNT>
0

> <PUBCHEM_BOND_UDEF_STEREO_COUNT>
0

> <PUBCHEM_ISOTOPIC_ATOM_COUNT>
0

> <PUBCHEM_COMPONENT_COUNT>
1

> <PUBCHEM_CACTVS_TAUTO_COUNT>
-1

> <PUBCHEM_COORDINATE_TYPE>
1
5
255

> <PUBCHEM_BONDANNOTATIONS>
27  28  8
27  29  8
28  30  8
29  31  8
30  32  8
31  32  8
5  9  3
6  10  3

$$$$
