93102
  -OEChem-04042505422D

 38 40  0     0  0  0  0  0  0999 V2000
    5.4392   -0.0000    0.0000 O   0  0  0  0  0  0  0  0  0  0  0  0
    2.0249    0.0000    0.0000 O   0  0  0  0  0  0  0  0  0  0  0  0
    5.4641    5.7071    0.0000 O   0  0  0  0  0  0  0  0  0  0  0  0
    2.0000   -5.7071    0.0000 O   0  0  0  0  0  0  0  0  0  0  0  0
    3.7320    0.7071    0.0000 N   0  0  0  0  0  0  0  0  0  0  0  0
    3.7320   -0.7071    0.0000 N   0  0  0  0  0  0  0  0  0  0  0  0
    5.4641    3.7071    0.0000 N   0  0  0  0  0  0  0  0  0  0  0  0
    2.0000   -3.7071    0.0000 N   0  0  0  0  0  0  0  0  0  0  0  0
    4.4392   -0.0000    0.0000 C   0  0  0  0  0  0  0  0  0  0  0  0
    3.0249   -0.0000    0.0000 C   0  0  0  0  0  0  0  0  0  0  0  0
    3.7320    1.7071    0.0000 C   0  0  0  0  0  0  0  0  0  0  0  0
    3.7320   -1.7071    0.0000 C   0  0  0  0  0  0  0  0  0  0  0  0
    4.5981    2.2071    0.0000 C   0  0  0  0  0  0  0  0  0  0  0  0
    2.8660   -2.2071    0.0000 C   0  0  0  0  0  0  0  0  0  0  0  0
    2.8660    2.2071    0.0000 C   0  0  0  0  0  0  0  0  0  0  0  0
    4.5981   -2.2071    0.0000 C   0  0  0  0  0  0  0  0  0  0  0  0
    3.7320    3.7071    0.0000 C   0  0  0  0  0  0  0  0  0  0  0  0
    3.7320   -3.7071    0.0000 C   0  0  0  0  0  0  0  0  0  0  0  0
    4.5981    3.2071    0.0000 C   0  0  0  0  0  0  0  0  0  0  0  0
    2.8660   -3.2071    0.0000 C   0  0  0  0  0  0  0  0  0  0  0  0
    2.8660    3.2071    0.0000 C   0  0  0  0  0  0  0  0  0  0  0  0
    4.5981   -3.2071    0.0000 C   0  0  0  0  0  0  0  0  0  0  0  0
    3.7320    4.7071    0.0000 C   0  0  0  0  0  0  0  0  0  0  0  0
    3.7320   -4.7071    0.0000 C   0  0  0  0  0  0  0  0  0  0  0  0
    5.4641    4.7071    0.0000 C   0  0  0  0  0  0  0  0  0  0  0  0
    2.0000   -4.7071    0.0000 C   0  0  0  0  0  0  0  0  0  0  0  0
    5.1350    1.8971    0.0000 H   0  0  0  0  0  0  0  0  0  0  0  0
    2.3291   -1.8971    0.0000 H   0  0  0  0  0  0  0  0  0  0  0  0
    2.3291    1.8971    0.0000 H   0  0  0  0  0  0  0  0  0  0  0  0
    5.1350   -1.8971    0.0000 H   0  0  0  0  0  0  0  0  0  0  0  0
    2.3291    3.5171    0.0000 H   0  0  0  0  0  0  0  0  0  0  0  0
    5.1350   -3.5171    0.0000 H   0  0  0  0  0  0  0  0  0  0  0  0
    4.3520    4.7071    0.0000 H   0  0  0  0  0  0  0  0  0  0  0  0
    3.7320    5.3271    0.0000 H   0  0  0  0  0  0  0  0  0  0  0  0
    3.1120    4.7071    0.0000 H   0  0  0  0  0  0  0  0  0  0  0  0
    3.1120   -4.7071    0.0000 H   0  0  0  0  0  0  0  0  0  0  0  0
    3.7320   -5.3271    0.0000 H   0  0  0  0  0  0  0  0  0  0  0  0
    4.3520   -4.7071    0.0000 H   0  0  0  0  0  0  0  0  0  0  0  0
  1  9  2  0  0  0  0
  2 10  2  0  0  0  0
  3 25  2  0  0  0  0
  4 26  2  0  0  0  0
  5  9  1  0  0  0  0
  5 10  1  0  0  0  0
  5 11  1  0  0  0  0
  6  9  1  0  0  0  0
  6 10  1  0  0  0  0
  6 12  1  0  0  0  0
  7 19  1  0  0  0  0
  7 25  2  0  0  0  0
  8 20  1  0  0  0  0
  8 26  2  0  0  0  0
 11 13  2  0  0  0  0
 11 15  1  0  0  0  0
 12 14  2  0  0  0  0
 12 16  1  0  0  0  0
 13 19  1  0  0  0  0
 13 27  1  0  0  0  0
 14 20  1  0  0  0  0
 14 28  1  0  0  0  0
 15 21  2  0  0  0  0
 15 29  1  0  0  0  0
 16 22  2  0  0  0  0
 16 30  1  0  0  0  0
 17 19  2  0  0  0  0
 17 21  1  0  0  0  0
 17 23  1  0  0  0  0
 18 20  2  0  0  0  0
 18 22  1  0  0  0  0
 18 24  1  0  0  0  0
 21 31  1  0  0  0  0
 22 32  1  0  0  0  0
 23 33  1  0  0  0  0
 23 34  1  0  0  0  0
 23 35  1  0  0  0  0
 24 36  1  0  0  0  0
 24 37  1  0  0  0  0
 24 38  1  0  0  0  0
M  END
> <PUBCHEM_COMPOUND_CID>
93102

> <PUBCHEM_COMPOUND_CANONICALIZED>
1

> <PUBCHEM_CACTVS_COMPLEXITY>
609

> <PUBCHEM_CACTVS_HBOND_ACCEPTOR>
6

> <PUBCHEM_CACTVS_HBOND_DONOR>
0

> <PUBCHEM_CACTVS_ROTATABLE_BOND>
4

> <PUBCHEM_CACTVS_SUBSKEYS>
AAADccB7uAAAAAAAAAAAAAAAAABYAAAAAAAwYAAAAAAAAAABQAAAHgAAAAAADAiBGAAzwIMAAACoAiRCVACCAAAhAgAIiAAAZIiIICLA0dGEIAhohSJIyCcQgAAOCAAAAAQCAAAQAAAACAQAAAAAAAAAAA==

> <PUBCHEM_IUPAC_OPENEYE_NAME>
1,3-bis(3-isocyanato-4-methyl-phenyl)-1,3-diazetidine-2,4-dione

> <PUBCHEM_IUPAC_CAS_NAME>
1,3-bis(3-isocyanato-4-methylphenyl)-1,3-diazetidine-2,4-dione

> <PUBCHEM_IUPAC_NAME_MARKUP>
1,3-bis(3-isocyanato-4-methylphenyl)-1,3-diazetidine-2,4-dione

> <PUBCHEM_IUPAC_NAME>
1,3-bis(3-isocyanato-4-methylphenyl)-1,3-diazetidine-2,4-dione

> <PUBCHEM_IUPAC_SYSTEMATIC_NAME>
1,3-bis(3-isocyanato-4-methyl-phenyl)-1,3-diazetidine-2,4-dione

> <PUBCHEM_IUPAC_TRADITIONAL_NAME>
1,3-bis(3-isocyanato-4-methyl-phenyl)-1,3-diazetidine-2,4-quinone

> <PUBCHEM_IUPAC_INCHI>
InChI=1S/C18H12N4O4/c1-11-3-5-13(7-15(11)19-9-23)21-17(25)22(18(21)26)14-6-4-12(2)16(8-14)20-10-24/h3-8H,1-2H3

> <PUBCHEM_IUPAC_INCHIKEY>
LOCPTSFJZDIICR-UHFFFAOYSA-N

> <PUBCHEM_XLOGP3_AA>
5

> <PUBCHEM_EXACT_MASS>
348.08585488

> <PUBCHEM_MOLECULAR_FORMULA>
C18H12N4O4

> <PUBCHEM_MOLECULAR_WEIGHT>
348.3

> <PUBCHEM_SMILES>
CC1=C(C=C(C=C1)N2C(=O)N(C2=O)C3=CC(=C(C=C3)C)N=C=O)N=C=O

> <PUBCHEM_OPENEYE_CAN_SMILES>
CC1=C(C=C(C=C1)N2C(=O)N(C2=O)C3=CC(=C(C=C3)C)N=C=O)N=C=O

> <PUBCHEM_OPENEYE_ISO_SMILES>
CC1=C(C=C(C=C1)N2C(=O)N(C2=O)C3=CC(=C(C=C3)C)N=C=O)N=C=O

> <PUBCHEM_CACTVS_TPSA>
99.5

> <PUBCHEM_MONOISOTOPIC_WEIGHT>
348.08585488

> <PUBCHEM_TOTAL_CHARGE>
0

> <PUBCHEM_HEAVY_ATOM_COUNT>
26

> <PUBCHEM_ATOM_DEF_STEREO_COUNT>
0

> <PUBCHEM_ATOM_UDEF_STEREO_COUNT>
0

> <PUBCHEM_BOND_DEF_STEREO_COUNT>
0

> <PUBCHEM_BOND_UDEF_STEREO_COUNT>
0

> <PUBCHEM_ISOTOPIC_ATOM_COUNT>
0

> <PUBCHEM_COMPONENT_COUNT>
1

> <PUBCHEM_CACTVS_TAUTO_COUNT>
-1

> <PUBCHEM_COORDINATE_TYPE>
1
5
255

> <PUBCHEM_BONDANNOTATIONS>
11  13  8
11  15  8
12  14  8
12  16  8
13  19  8
14  20  8
15  21  8
16  22  8
17  19  8
17  21  8
18  20  8
18  22  8

$$$$
