93207
  -OEChem-04042513082D

166171  0     0  0  0  0  0  0999 V2000
    6.3301    1.7500    0.0000 P   0  0  0  0  0  0  0  0  0  0  0  0
   12.3923   -1.7500    0.0000 P   0  0  0  0  0  0  0  0  0  0  0  0
    6.3301    2.7500    0.0000 O   0  0  0  0  0  0  0  0  0  0  0  0
    5.4641    1.2500    0.0000 O   0  0  0  0  0  0  0  0  0  0  0  0
   12.3923   -2.7500    0.0000 O   0  0  0  0  0  0  0  0  0  0  0  0
   13.2583   -1.2500    0.0000 O   0  0  0  0  0  0  0  0  0  0  0  0
    6.3301    4.7500    0.0000 C   0  0  0  0  0  0  0  0  0  0  0  0
    3.7320    0.2500    0.0000 C   0  0  0  0  0  0  0  0  0  0  0  0
   12.3923   -4.7500    0.0000 C   0  0  0  0  0  0  0  0  0  0  0  0
   14.9904   -0.2500    0.0000 C   0  0  0  0  0  0  0  0  0  0  0  0
    2.8660    4.7500    0.0000 C   0  0  0  0  0  0  0  0  0  0  0  0
    5.4641   -2.7500    0.0000 C   0  0  0  0  0  0  0  0  0  0  0  0
    8.9282   -4.7500    0.0000 C   0  0  0  0  0  0  0  0  0  0  0  0
   16.7224   -3.2500    0.0000 C   0  0  0  0  0  0  0  0  0  0  0  0
    5.4641    4.2500    0.0000 C   0  0  0  0  0  0  0  0  0  0  0  0
    4.5981   -0.2500    0.0000 C   0  0  0  0  0  0  0  0  0  0  0  0
   11.5263   -4.2500    0.0000 C   0  0  0  0  0  0  0  0  0  0  0  0
   14.9904   -1.2500    0.0000 C   0  0  0  0  0  0  0  0  0  0  0  0
    3.7320    4.2500    0.0000 C   0  0  0  0  0  0  0  0  0  0  0  0
    5.4641   -1.7500    0.0000 C   0  0  0  0  0  0  0  0  0  0  0  0
    9.7942   -4.2500    0.0000 C   0  0  0  0  0  0  0  0  0  0  0  0
   15.8564   -2.7500    0.0000 C   0  0  0  0  0  0  0  0  0  0  0  0
    4.5981    4.7500    0.0000 C   0  0  0  0  0  0  0  0  0  0  0  0
    4.5981   -1.2500    0.0000 C   0  0  0  0  0  0  0  0  0  0  0  0
   10.6603   -4.7500    0.0000 C   0  0  0  0  0  0  0  0  0  0  0  0
   15.8564   -1.7500    0.0000 C   0  0  0  0  0  0  0  0  0  0  0  0
    5.4641    3.2500    0.0000 C   0  0  0  0  0  0  0  0  0  0  0  0
    5.4641    0.2500    0.0000 C   0  0  0  0  0  0  0  0  0  0  0  0
   11.5263   -3.2500    0.0000 C   0  0  0  0  0  0  0  0  0  0  0  0
   14.1244   -1.7500    0.0000 C   0  0  0  0  0  0  0  0  0  0  0  0
    7.1962    5.2500    0.0000 C   0  0  0  0  0  0  0  0  0  0  0  0
    5.8301    5.6160    0.0000 C   0  0  0  0  0  0  0  0  0  0  0  0
    6.8301    3.8840    0.0000 C   0  0  0  0  0  0  0  0  0  0  0  0
    2.8660    0.7500    0.0000 C   0  0  0  0  0  0  0  0  0  0  0  0
    3.2320   -0.6160    0.0000 C   0  0  0  0  0  0  0  0  0  0  0  0
    4.2320    1.1160    0.0000 C   0  0  0  0  0  0  0  0  0  0  0  0
   13.2583   -5.2500    0.0000 C   0  0  0  0  0  0  0  0  0  0  0  0
   11.8923   -5.6160    0.0000 C   0  0  0  0  0  0  0  0  0  0  0  0
   12.8923   -3.8840    0.0000 C   0  0  0  0  0  0  0  0  0  0  0  0
   14.9904    0.7500    0.0000 C   0  0  0  0  0  0  0  0  0  0  0  0
   15.9904   -0.2500    0.0000 C   0  0  0  0  0  0  0  0  0  0  0  0
   13.9904   -0.2500    0.0000 C   0  0  0  0  0  0  0  0  0  0  0  0
    2.0000    5.2500    0.0000 C   0  0  0  0  0  0  0  0  0  0  0  0
    3.3660    5.6160    0.0000 C   0  0  0  0  0  0  0  0  0  0  0  0
    2.3660    3.8840    0.0000 C   0  0  0  0  0  0  0  0  0  0  0  0
    5.4641   -3.7500    0.0000 C   0  0  0  0  0  0  0  0  0  0  0  0
    4.4641   -2.7500    0.0000 C   0  0  0  0  0  0  0  0  0  0  0  0
    6.4641   -2.7500    0.0000 C   0  0  0  0  0  0  0  0  0  0  0  0
    8.0622   -5.2500    0.0000 C   0  0  0  0  0  0  0  0  0  0  0  0
    9.4282   -5.6160    0.0000 C   0  0  0  0  0  0  0  0  0  0  0  0
    8.4282   -3.8840    0.0000 C   0  0  0  0  0  0  0  0  0  0  0  0
   17.5885   -3.7500    0.0000 C   0  0  0  0  0  0  0  0  0  0  0  0
   16.2224   -4.1160    0.0000 C   0  0  0  0  0  0  0  0  0  0  0  0
   17.2224   -2.3840    0.0000 C   0  0  0  0  0  0  0  0  0  0  0  0
    3.7320    3.2500    0.0000 C   0  0  0  0  0  0  0  0  0  0  0  0
    6.3301   -1.2500    0.0000 C   0  0  0  0  0  0  0  0  0  0  0  0
    9.7942   -3.2500    0.0000 C   0  0  0  0  0  0  0  0  0  0  0  0
   14.9904   -3.2500    0.0000 C   0  0  0  0  0  0  0  0  0  0  0  0
    4.5981    2.7500    0.0000 C   0  0  0  0  0  0  0  0  0  0  0  0
    6.3301   -0.2500    0.0000 C   0  0  0  0  0  0  0  0  0  0  0  0
   10.6603   -2.7500    0.0000 C   0  0  0  0  0  0  0  0  0  0  0  0
   14.1244   -2.7500    0.0000 C   0  0  0  0  0  0  0  0  0  0  0  0
    7.1962    1.2500    0.0000 C   0  0  0  0  0  0  0  0  0  0  0  0
   11.5263   -1.2500    0.0000 C   0  0  0  0  0  0  0  0  0  0  0  0
    7.1962    0.2500    0.0000 C   0  0  0  0  0  0  0  0  0  0  0  0
   11.5263   -0.2500    0.0000 C   0  0  0  0  0  0  0  0  0  0  0  0
    8.0622    1.7500    0.0000 C   0  0  0  0  0  0  0  0  0  0  0  0
   10.6603   -1.7500    0.0000 C   0  0  0  0  0  0  0  0  0  0  0  0
    8.9282    0.2500    0.0000 C   0  0  0  0  0  0  0  0  0  0  0  0
    9.7942   -0.2500    0.0000 C   0  0  0  0  0  0  0  0  0  0  0  0
    8.0622   -0.2500    0.0000 C   0  0  0  0  0  0  0  0  0  0  0  0
   10.6603    0.2500    0.0000 C   0  0  0  0  0  0  0  0  0  0  0  0
    8.9282    1.2500    0.0000 C   0  0  0  0  0  0  0  0  0  0  0  0
    9.7942   -1.2500    0.0000 C   0  0  0  0  0  0  0  0  0  0  0  0
    4.5981    5.3700    0.0000 H   0  0  0  0  0  0  0  0  0  0  0  0
    4.0611   -1.5600    0.0000 H   0  0  0  0  0  0  0  0  0  0  0  0
   10.6603   -5.3700    0.0000 H   0  0  0  0  0  0  0  0  0  0  0  0
   16.3933   -1.4400    0.0000 H   0  0  0  0  0  0  0  0  0  0  0  0
    7.5062    4.7131    0.0000 H   0  0  0  0  0  0  0  0  0  0  0  0
    7.7331    5.5600    0.0000 H   0  0  0  0  0  0  0  0  0  0  0  0
    6.8862    5.7869    0.0000 H   0  0  0  0  0  0  0  0  0  0  0  0
    6.3671    5.9260    0.0000 H   0  0  0  0  0  0  0  0  0  0  0  0
    5.5201    6.1530    0.0000 H   0  0  0  0  0  0  0  0  0  0  0  0
    5.2932    5.3060    0.0000 H   0  0  0  0  0  0  0  0  0  0  0  0
    6.2932    3.5740    0.0000 H   0  0  0  0  0  0  0  0  0  0  0  0
    7.1401    3.3470    0.0000 H   0  0  0  0  0  0  0  0  0  0  0  0
    7.3671    4.1940    0.0000 H   0  0  0  0  0  0  0  0  0  0  0  0
    3.1760    1.2869    0.0000 H   0  0  0  0  0  0  0  0  0  0  0  0
    2.3291    1.0600    0.0000 H   0  0  0  0  0  0  0  0  0  0  0  0
    2.5560    0.2131    0.0000 H   0  0  0  0  0  0  0  0  0  0  0  0
    2.6951   -0.3060    0.0000 H   0  0  0  0  0  0  0  0  0  0  0  0
    2.9220   -1.1530    0.0000 H   0  0  0  0  0  0  0  0  0  0  0  0
    3.7690   -0.9260    0.0000 H   0  0  0  0  0  0  0  0  0  0  0  0
    4.7690    0.8060    0.0000 H   0  0  0  0  0  0  0  0  0  0  0  0
    4.5420    1.6530    0.0000 H   0  0  0  0  0  0  0  0  0  0  0  0
    3.6951    1.4260    0.0000 H   0  0  0  0  0  0  0  0  0  0  0  0
   12.9483   -5.7869    0.0000 H   0  0  0  0  0  0  0  0  0  0  0  0
   13.7953   -5.5600    0.0000 H   0  0  0  0  0  0  0  0  0  0  0  0
   13.5683   -4.7131    0.0000 H   0  0  0  0  0  0  0  0  0  0  0  0
   11.3554   -5.3060    0.0000 H   0  0  0  0  0  0  0  0  0  0  0  0
   11.5823   -6.1530    0.0000 H   0  0  0  0  0  0  0  0  0  0  0  0
   12.4292   -5.9260    0.0000 H   0  0  0  0  0  0  0  0  0  0  0  0
   13.4292   -4.1940    0.0000 H   0  0  0  0  0  0  0  0  0  0  0  0
   13.2023   -3.3470    0.0000 H   0  0  0  0  0  0  0  0  0  0  0  0
   12.3554   -3.5740    0.0000 H   0  0  0  0  0  0  0  0  0  0  0  0
   15.6104    0.7500    0.0000 H   0  0  0  0  0  0  0  0  0  0  0  0
   14.9904    1.3700    0.0000 H   0  0  0  0  0  0  0  0  0  0  0  0
   14.3704    0.7500    0.0000 H   0  0  0  0  0  0  0  0  0  0  0  0
   15.9904   -0.8700    0.0000 H   0  0  0  0  0  0  0  0  0  0  0  0
   16.6104   -0.2500    0.0000 H   0  0  0  0  0  0  0  0  0  0  0  0
   15.9904    0.3700    0.0000 H   0  0  0  0  0  0  0  0  0  0  0  0
   13.9904    0.3700    0.0000 H   0  0  0  0  0  0  0  0  0  0  0  0
   13.3704   -0.2500    0.0000 H   0  0  0  0  0  0  0  0  0  0  0  0
   13.9904   -0.8700    0.0000 H   0  0  0  0  0  0  0  0  0  0  0  0
    2.3100    5.7869    0.0000 H   0  0  0  0  0  0  0  0  0  0  0  0
    1.4631    5.5600    0.0000 H   0  0  0  0  0  0  0  0  0  0  0  0
    1.6900    4.7131    0.0000 H   0  0  0  0  0  0  0  0  0  0  0  0
    3.9030    5.3060    0.0000 H   0  0  0  0  0  0  0  0  0  0  0  0
    3.6760    6.1530    0.0000 H   0  0  0  0  0  0  0  0  0  0  0  0
    2.8291    5.9260    0.0000 H   0  0  0  0  0  0  0  0  0  0  0  0
    1.8291    4.1940    0.0000 H   0  0  0  0  0  0  0  0  0  0  0  0
    2.0560    3.3470    0.0000 H   0  0  0  0  0  0  0  0  0  0  0  0
    2.9030    3.5740    0.0000 H   0  0  0  0  0  0  0  0  0  0  0  0
    4.8441   -3.7500    0.0000 H   0  0  0  0  0  0  0  0  0  0  0  0
    5.4641   -4.3700    0.0000 H   0  0  0  0  0  0  0  0  0  0  0  0
    6.0841   -3.7500    0.0000 H   0  0  0  0  0  0  0  0  0  0  0  0
    4.4641   -2.1300    0.0000 H   0  0  0  0  0  0  0  0  0  0  0  0
    3.8441   -2.7500    0.0000 H   0  0  0  0  0  0  0  0  0  0  0  0
    4.4641   -3.3700    0.0000 H   0  0  0  0  0  0  0  0  0  0  0  0
    6.4641   -3.3700    0.0000 H   0  0  0  0  0  0  0  0  0  0  0  0
    7.0841   -2.7500    0.0000 H   0  0  0  0  0  0  0  0  0  0  0  0
    6.4641   -2.1300    0.0000 H   0  0  0  0  0  0  0  0  0  0  0  0
    7.7522   -4.7131    0.0000 H   0  0  0  0  0  0  0  0  0  0  0  0
    7.5252   -5.5600    0.0000 H   0  0  0  0  0  0  0  0  0  0  0  0
    8.3722   -5.7869    0.0000 H   0  0  0  0  0  0  0  0  0  0  0  0
    8.8913   -5.9260    0.0000 H   0  0  0  0  0  0  0  0  0  0  0  0
    9.7382   -6.1530    0.0000 H   0  0  0  0  0  0  0  0  0  0  0  0
    9.9651   -5.3060    0.0000 H   0  0  0  0  0  0  0  0  0  0  0  0
    8.9651   -3.5740    0.0000 H   0  0  0  0  0  0  0  0  0  0  0  0
    8.1182   -3.3470    0.0000 H   0  0  0  0  0  0  0  0  0  0  0  0
    7.8913   -4.1940    0.0000 H   0  0  0  0  0  0  0  0  0  0  0  0
   17.2785   -4.2869    0.0000 H   0  0  0  0  0  0  0  0  0  0  0  0
   18.1254   -4.0600    0.0000 H   0  0  0  0  0  0  0  0  0  0  0  0
   17.8985   -3.2131    0.0000 H   0  0  0  0  0  0  0  0  0  0  0  0
   15.6855   -3.8060    0.0000 H   0  0  0  0  0  0  0  0  0  0  0  0
   15.9124   -4.6530    0.0000 H   0  0  0  0  0  0  0  0  0  0  0  0
   16.7594   -4.4260    0.0000 H   0  0  0  0  0  0  0  0  0  0  0  0
   17.7594   -2.6940    0.0000 H   0  0  0  0  0  0  0  0  0  0  0  0
   17.5324   -1.8470    0.0000 H   0  0  0  0  0  0  0  0  0  0  0  0
   16.6855   -2.0740    0.0000 H   0  0  0  0  0  0  0  0  0  0  0  0
    3.1951    2.9400    0.0000 H   0  0  0  0  0  0  0  0  0  0  0  0
    6.8671   -1.5600    0.0000 H   0  0  0  0  0  0  0  0  0  0  0  0
    9.2573   -2.9400    0.0000 H   0  0  0  0  0  0  0  0  0  0  0  0
   14.9904   -3.8700    0.0000 H   0  0  0  0  0  0  0  0  0  0  0  0
    4.5981    2.1300    0.0000 H   0  0  0  0  0  0  0  0  0  0  0  0
    6.8671    0.0600    0.0000 H   0  0  0  0  0  0  0  0  0  0  0  0
   10.6603   -2.1300    0.0000 H   0  0  0  0  0  0  0  0  0  0  0  0
   13.5874   -3.0600    0.0000 H   0  0  0  0  0  0  0  0  0  0  0  0
    6.6592   -0.0600    0.0000 H   0  0  0  0  0  0  0  0  0  0  0  0
   12.0632    0.0600    0.0000 H   0  0  0  0  0  0  0  0  0  0  0  0
    8.0622    2.3700    0.0000 H   0  0  0  0  0  0  0  0  0  0  0  0
   10.6603   -2.3700    0.0000 H   0  0  0  0  0  0  0  0  0  0  0  0
    8.0622   -0.8700    0.0000 H   0  0  0  0  0  0  0  0  0  0  0  0
   10.6603    0.8700    0.0000 H   0  0  0  0  0  0  0  0  0  0  0  0
    9.4651    1.5600    0.0000 H   0  0  0  0  0  0  0  0  0  0  0  0
    9.2573   -1.5600    0.0000 H   0  0  0  0  0  0  0  0  0  0  0  0
  1  3  1  0  0  0  0
  1  4  1  0  0  0  0
  1 63  1  0  0  0  0
  2  5  1  0  0  0  0
  2  6  1  0  0  0  0
  2 64  1  0  0  0  0
  3 27  1  0  0  0  0
  4 28  1  0  0  0  0
  5 29  1  0  0  0  0
  6 30  1  0  0  0  0
  7 15  1  0  0  0  0
  7 31  1  0  0  0  0
  7 32  1  0  0  0  0
  7 33  1  0  0  0  0
  8 16  1  0  0  0  0
  8 34  1  0  0  0  0
  8 35  1  0  0  0  0
  8 36  1  0  0  0  0
  9 17  1  0  0  0  0
  9 37  1  0  0  0  0
  9 38  1  0  0  0  0
  9 39  1  0  0  0  0
 10 18  1  0  0  0  0
 10 40  1  0  0  0  0
 10 41  1  0  0  0  0
 10 42  1  0  0  0  0
 11 19  1  0  0  0  0
 11 43  1  0  0  0  0
 11 44  1  0  0  0  0
 11 45  1  0  0  0  0
 12 20  1  0  0  0  0
 12 46  1  0  0  0  0
 12 47  1  0  0  0  0
 12 48  1  0  0  0  0
 13 21  1  0  0  0  0
 13 49  1  0  0  0  0
 13 50  1  0  0  0  0
 13 51  1  0  0  0  0
 14 22  1  0  0  0  0
 14 52  1  0  0  0  0
 14 53  1  0  0  0  0
 14 54  1  0  0  0  0
 15 23  1  0  0  0  0
 15 27  2  0  0  0  0
 16 24  1  0  0  0  0
 16 28  2  0  0  0  0
 17 25  1  0  0  0  0
 17 29  2  0  0  0  0
 18 26  1  0  0  0  0
 18 30  2  0  0  0  0
 19 23  2  0  0  0  0
 19 55  1  0  0  0  0
 20 24  2  0  0  0  0
 20 56  1  0  0  0  0
 21 25  2  0  0  0  0
 21 57  1  0  0  0  0
 22 26  2  0  0  0  0
 22 58  1  0  0  0  0
 23 75  1  0  0  0  0
 24 76  1  0  0  0  0
 25 77  1  0  0  0  0
 26 78  1  0  0  0  0
 27 59  1  0  0  0  0
 28 60  1  0  0  0  0
 29 61  1  0  0  0  0
 30 62  1  0  0  0  0
 31 79  1  0  0  0  0
 31 80  1  0  0  0  0
 31 81  1  0  0  0  0
 32 82  1  0  0  0  0
 32 83  1  0  0  0  0
 32 84  1  0  0  0  0
 33 85  1  0  0  0  0
 33 86  1  0  0  0  0
 33 87  1  0  0  0  0
 34 88  1  0  0  0  0
 34 89  1  0  0  0  0
 34 90  1  0  0  0  0
 35 91  1  0  0  0  0
 35 92  1  0  0  0  0
 35 93  1  0  0  0  0
 36 94  1  0  0  0  0
 36 95  1  0  0  0  0
 36 96  1  0  0  0  0
 37 97  1  0  0  0  0
 37 98  1  0  0  0  0
 37 99  1  0  0  0  0
 38100  1  0  0  0  0
 38101  1  0  0  0  0
 38102  1  0  0  0  0
 39103  1  0  0  0  0
 39104  1  0  0  0  0
 39105  1  0  0  0  0
 40106  1  0  0  0  0
 40107  1  0  0  0  0
 40108  1  0  0  0  0
 41109  1  0  0  0  0
 41110  1  0  0  0  0
 41111  1  0  0  0  0
 42112  1  0  0  0  0
 42113  1  0  0  0  0
 42114  1  0  0  0  0
 43115  1  0  0  0  0
 43116  1  0  0  0  0
 43117  1  0  0  0  0
 44118  1  0  0  0  0
 44119  1  0  0  0  0
 44120  1  0  0  0  0
 45121  1  0  0  0  0
 45122  1  0  0  0  0
 45123  1  0  0  0  0
 46124  1  0  0  0  0
 46125  1  0  0  0  0
 46126  1  0  0  0  0
 47127  1  0  0  0  0
 47128  1  0  0  0  0
 47129  1  0  0  0  0
 48130  1  0  0  0  0
 48131  1  0  0  0  0
 48132  1  0  0  0  0
 49133  1  0  0  0  0
 49134  1  0  0  0  0
 49135  1  0  0  0  0
 50136  1  0  0  0  0
 50137  1  0  0  0  0
 50138  1  0  0  0  0
 51139  1  0  0  0  0
 51140  1  0  0  0  0
 51141  1  0  0  0  0
 52142  1  0  0  0  0
 52143  1  0  0  0  0
 52144  1  0  0  0  0
 53145  1  0  0  0  0
 53146  1  0  0  0  0
 53147  1  0  0  0  0
 54148  1  0  0  0  0
 54149  1  0  0  0  0
 54150  1  0  0  0  0
 55 59  2  0  0  0  0
 55151  1  0  0  0  0
 56 60  2  0  0  0  0
 56152  1  0  0  0  0
 57 61  2  0  0  0  0
 57153  1  0  0  0  0
 58 62  2  0  0  0  0
 58154  1  0  0  0  0
 59155  1  0  0  0  0
 60156  1  0  0  0  0
 61157  1  0  0  0  0
 62158  1  0  0  0  0
 63 65  2  0  0  0  0
 63 67  1  0  0  0  0
 64 66  2  0  0  0  0
 64 68  1  0  0  0  0
 65 71  1  0  0  0  0
 65159  1  0  0  0  0
 66 72  1  0  0  0  0
 66160  1  0  0  0  0
 67 73  2  0  0  0  0
 67161  1  0  0  0  0
 68 74  2  0  0  0  0
 68162  1  0  0  0  0
 69 70  1  0  0  0  0
 69 71  2  0  0  0  0
 69 73  1  0  0  0  0
 70 72  2  0  0  0  0
 70 74  1  0  0  0  0
 71163  1  0  0  0  0
 72164  1  0  0  0  0
 73165  1  0  0  0  0
 74166  1  0  0  0  0
M  END
> <PUBCHEM_COMPOUND_CID>
93207

> <PUBCHEM_COMPOUND_CANONICALIZED>
1

> <PUBCHEM_CACTVS_COMPLEXITY>
1470

> <PUBCHEM_CACTVS_HBOND_ACCEPTOR>
4

> <PUBCHEM_CACTVS_HBOND_DONOR>
0

> <PUBCHEM_CACTVS_ROTATABLE_BOND>
19

> <PUBCHEM_CACTVS_SUBSKEYS>
AAADcfB8OAMAAAAAAAAAAAAAAAAAAAAAAAAwYMGDAAAAAAABVAAAGggAACAADgSAmAAyBoAAARCAAiBCAAACAAAgIAAIiAAGCIgIJiKAERKAMAAkwBEIiAeAwPAPoAACAAAIAABAAAQAABAAAAAAAAAAAA==

> <PUBCHEM_IUPAC_OPENEYE_NAME>
[4-[4-bis(2,4-ditert-butylphenoxy)phosphanylphenyl]phenyl]-bis(2,4-ditert-butylphenoxy)phosphane

> <PUBCHEM_IUPAC_CAS_NAME>
[4-[4-bis(2,4-ditert-butylphenoxy)phosphinophenyl]phenyl]-bis(2,4-ditert-butylphenoxy)phosphine

> <PUBCHEM_IUPAC_NAME_MARKUP>
[4-[4-bis(2,4-di<I>tert</I>-butylphenoxy)phosphanylphenyl]phenyl]-bis(2,4-di<I>tert</I>-butylphenoxy)phosphane

> <PUBCHEM_IUPAC_NAME>
[4-[4-bis(2,4-ditert-butylphenoxy)phosphanylphenyl]phenyl]-bis(2,4-ditert-butylphenoxy)phosphane

> <PUBCHEM_IUPAC_SYSTEMATIC_NAME>
[4-[4-bis(2,4-ditert-butylphenoxy)phosphanylphenyl]phenyl]-bis(2,4-ditert-butylphenoxy)phosphane

> <PUBCHEM_IUPAC_TRADITIONAL_NAME>
[4-[4-bis(2,4-ditert-butylphenoxy)phosphinophenyl]phenyl]-bis(2,4-ditert-butylphenoxy)phosphine

> <PUBCHEM_IUPAC_INCHI>
InChI=1S/C68H92O4P2/c1-61(2,3)47-29-37-57(53(41-47)65(13,14)15)69-73(70-58-38-30-48(62(4,5)6)42-54(58)66(16,17)18)51-33-25-45(26-34-51)46-27-35-52(36-28-46)74(71-59-39-31-49(63(7,8)9)43-55(59)67(19,20)21)72-60-40-32-50(64(10,11)12)44-56(60)68(22,23)24/h25-44H,1-24H3

> <PUBCHEM_IUPAC_INCHIKEY>
BEIOEBMXPVYLRY-UHFFFAOYSA-N

> <PUBCHEM_XLOGP3_AA>
23.5

> <PUBCHEM_EXACT_MASS>
1034.64708541

> <PUBCHEM_MOLECULAR_FORMULA>
C68H92O4P2

> <PUBCHEM_MOLECULAR_WEIGHT>
1035.4

> <PUBCHEM_SMILES>
CC(C)(C)C1=CC(=C(C=C1)OP(C2=CC=C(C=C2)C3=CC=C(C=C3)P(OC4=C(C=C(C=C4)C(C)(C)C)C(C)(C)C)OC5=C(C=C(C=C5)C(C)(C)C)C(C)(C)C)OC6=C(C=C(C=C6)C(C)(C)C)C(C)(C)C)C(C)(C)C

> <PUBCHEM_OPENEYE_CAN_SMILES>
CC(C)(C)C1=CC(=C(C=C1)OP(C2=CC=C(C=C2)C3=CC=C(C=C3)P(OC4=C(C=C(C=C4)C(C)(C)C)C(C)(C)C)OC5=C(C=C(C=C5)C(C)(C)C)C(C)(C)C)OC6=C(C=C(C=C6)C(C)(C)C)C(C)(C)C)C(C)(C)C

> <PUBCHEM_OPENEYE_ISO_SMILES>
CC(C)(C)C1=CC(=C(C=C1)OP(C2=CC=C(C=C2)C3=CC=C(C=C3)P(OC4=C(C=C(C=C4)C(C)(C)C)C(C)(C)C)OC5=C(C=C(C=C5)C(C)(C)C)C(C)(C)C)OC6=C(C=C(C=C6)C(C)(C)C)C(C)(C)C)C(C)(C)C

> <PUBCHEM_CACTVS_TPSA>
36.9

> <PUBCHEM_MONOISOTOPIC_WEIGHT>
1034.64708541

> <PUBCHEM_TOTAL_CHARGE>
0

> <PUBCHEM_HEAVY_ATOM_COUNT>
74

> <PUBCHEM_ATOM_DEF_STEREO_COUNT>
0

> <PUBCHEM_ATOM_UDEF_STEREO_COUNT>
0

> <PUBCHEM_BOND_DEF_STEREO_COUNT>
0

> <PUBCHEM_BOND_UDEF_STEREO_COUNT>
0

> <PUBCHEM_ISOTOPIC_ATOM_COUNT>
0

> <PUBCHEM_COMPONENT_COUNT>
1

> <PUBCHEM_CACTVS_TAUTO_COUNT>
-1

> <PUBCHEM_COORDINATE_TYPE>
1
5
255

> <PUBCHEM_BONDANNOTATIONS>
15  23  8
15  27  8
16  24  8
16  28  8
17  25  8
17  29  8
18  26  8
18  30  8
19  23  8
19  55  8
20  24  8
20  56  8
21  25  8
21  57  8
22  26  8
22  58  8
27  59  8
28  60  8
29  61  8
30  62  8
55  59  8
56  60  8
57  61  8
58  62  8
63  65  8
63  67  8
64  66  8
64  68  8
65  71  8
66  72  8
67  73  8
68  74  8
69  71  8
69  73  8
70  72  8
70  74  8

$$$$
