93405
  -OEChem-04042505362D

110111  0     0  0  0  0  0  0999 V2000
   15.8564   -7.7500    0.0000 O   0  0  0  0  0  0  0  0  0  0  0  0
    2.8660    7.7500    0.0000 O   0  0  0  0  0  0  0  0  0  0  0  0
   11.5263   -3.2500    0.0000 O   0  0  0  0  0  0  0  0  0  0  0  0
    7.1962    3.2500    0.0000 O   0  0  0  0  0  0  0  0  0  0  0  0
   10.6603   -4.7500    0.0000 O   0  0  0  0  0  0  0  0  0  0  0  0
    8.0622    4.7500    0.0000 O   0  0  0  0  0  0  0  0  0  0  0  0
   10.6603    0.2500    0.0000 O   0  0  0  0  0  0  0  0  0  0  0  0
    8.0622   -0.2500    0.0000 O   0  0  0  0  0  0  0  0  0  0  0  0
    9.7942   -1.2500    0.0000 N   0  0  0  0  0  0  0  0  0  0  0  0
    8.9282    1.2500    0.0000 N   0  0  0  0  0  0  0  0  0  0  0  0
   14.1244   -8.7500    0.0000 C   0  0  0  0  0  0  0  0  0  0  0  0
    4.5981    8.7500    0.0000 C   0  0  0  0  0  0  0  0  0  0  0  0
   15.8564   -5.7500    0.0000 C   0  0  0  0  0  0  0  0  0  0  0  0
    2.8660    5.7500    0.0000 C   0  0  0  0  0  0  0  0  0  0  0  0
   14.1244   -7.7500    0.0000 C   0  0  0  0  0  0  0  0  0  0  0  0
    4.5981    7.7500    0.0000 C   0  0  0  0  0  0  0  0  0  0  0  0
   14.9904   -6.2500    0.0000 C   0  0  0  0  0  0  0  0  0  0  0  0
    3.7320    6.2500    0.0000 C   0  0  0  0  0  0  0  0  0  0  0  0
   14.9904   -7.2500    0.0000 C   0  0  0  0  0  0  0  0  0  0  0  0
    3.7320    7.2500    0.0000 C   0  0  0  0  0  0  0  0  0  0  0  0
   13.2583   -6.2500    0.0000 C   0  0  0  0  0  0  0  0  0  0  0  0
    5.4641    6.2500    0.0000 C   0  0  0  0  0  0  0  0  0  0  0  0
   13.2583   -7.2500    0.0000 C   0  0  0  0  0  0  0  0  0  0  0  0
    5.4641    7.2500    0.0000 C   0  0  0  0  0  0  0  0  0  0  0  0
   14.1244   -5.7500    0.0000 C   0  0  0  0  0  0  0  0  0  0  0  0
    4.5981    5.7500    0.0000 C   0  0  0  0  0  0  0  0  0  0  0  0
   14.1244   -9.7500    0.0000 C   0  0  0  0  0  0  0  0  0  0  0  0
   13.1244   -8.7500    0.0000 C   0  0  0  0  0  0  0  0  0  0  0  0
   15.1244   -8.7500    0.0000 C   0  0  0  0  0  0  0  0  0  0  0  0
    4.5981    9.7500    0.0000 C   0  0  0  0  0  0  0  0  0  0  0  0
    5.5981    8.7500    0.0000 C   0  0  0  0  0  0  0  0  0  0  0  0
    3.5981    8.7500    0.0000 C   0  0  0  0  0  0  0  0  0  0  0  0
   16.7224   -5.2500    0.0000 C   0  0  0  0  0  0  0  0  0  0  0  0
   15.3564   -4.8840    0.0000 C   0  0  0  0  0  0  0  0  0  0  0  0
   16.3564   -6.6160    0.0000 C   0  0  0  0  0  0  0  0  0  0  0  0
    2.0000    5.2500    0.0000 C   0  0  0  0  0  0  0  0  0  0  0  0
    3.3660    4.8840    0.0000 C   0  0  0  0  0  0  0  0  0  0  0  0
    2.3660    6.6160    0.0000 C   0  0  0  0  0  0  0  0  0  0  0  0
   12.3923   -5.7500    0.0000 C   0  0  0  0  0  0  0  0  0  0  0  0
    6.3301    5.7500    0.0000 C   0  0  0  0  0  0  0  0  0  0  0  0
   12.3923   -4.7500    0.0000 C   0  0  0  0  0  0  0  0  0  0  0  0
    6.3301    4.7500    0.0000 C   0  0  0  0  0  0  0  0  0  0  0  0
   11.5263   -4.2500    0.0000 C   0  0  0  0  0  0  0  0  0  0  0  0
    7.1962    4.2500    0.0000 C   0  0  0  0  0  0  0  0  0  0  0  0
   10.6603   -2.7500    0.0000 C   0  0  0  0  0  0  0  0  0  0  0  0
    8.0622    2.7500    0.0000 C   0  0  0  0  0  0  0  0  0  0  0  0
   10.6603   -1.7500    0.0000 C   0  0  0  0  0  0  0  0  0  0  0  0
    8.0622    1.7500    0.0000 C   0  0  0  0  0  0  0  0  0  0  0  0
    9.7942   -0.2500    0.0000 C   0  0  0  0  0  0  0  0  0  0  0  0
    8.9282    0.2500    0.0000 C   0  0  0  0  0  0  0  0  0  0  0  0
   12.7214   -7.5600    0.0000 H   0  0  0  0  0  0  0  0  0  0  0  0
    6.0010    7.5600    0.0000 H   0  0  0  0  0  0  0  0  0  0  0  0
   14.1244   -5.1300    0.0000 H   0  0  0  0  0  0  0  0  0  0  0  0
    4.5981    5.1300    0.0000 H   0  0  0  0  0  0  0  0  0  0  0  0
   13.5044   -9.7500    0.0000 H   0  0  0  0  0  0  0  0  0  0  0  0
   14.1244  -10.3700    0.0000 H   0  0  0  0  0  0  0  0  0  0  0  0
   14.7444   -9.7500    0.0000 H   0  0  0  0  0  0  0  0  0  0  0  0
   13.1244   -8.1300    0.0000 H   0  0  0  0  0  0  0  0  0  0  0  0
   12.5044   -8.7500    0.0000 H   0  0  0  0  0  0  0  0  0  0  0  0
   13.1244   -9.3700    0.0000 H   0  0  0  0  0  0  0  0  0  0  0  0
   15.1244   -9.3700    0.0000 H   0  0  0  0  0  0  0  0  0  0  0  0
   15.7444   -8.7500    0.0000 H   0  0  0  0  0  0  0  0  0  0  0  0
   15.1244   -8.1300    0.0000 H   0  0  0  0  0  0  0  0  0  0  0  0
    5.2181    9.7500    0.0000 H   0  0  0  0  0  0  0  0  0  0  0  0
    4.5981   10.3700    0.0000 H   0  0  0  0  0  0  0  0  0  0  0  0
    3.9781    9.7500    0.0000 H   0  0  0  0  0  0  0  0  0  0  0  0
    5.5981    8.1300    0.0000 H   0  0  0  0  0  0  0  0  0  0  0  0
    6.2181    8.7500    0.0000 H   0  0  0  0  0  0  0  0  0  0  0  0
    5.5981    9.3700    0.0000 H   0  0  0  0  0  0  0  0  0  0  0  0
    3.5981    9.3700    0.0000 H   0  0  0  0  0  0  0  0  0  0  0  0
    2.9781    8.7500    0.0000 H   0  0  0  0  0  0  0  0  0  0  0  0
    3.5981    8.1300    0.0000 H   0  0  0  0  0  0  0  0  0  0  0  0
   17.0324   -5.7869    0.0000 H   0  0  0  0  0  0  0  0  0  0  0  0
   17.2594   -4.9400    0.0000 H   0  0  0  0  0  0  0  0  0  0  0  0
   16.4124   -4.7131    0.0000 H   0  0  0  0  0  0  0  0  0  0  0  0
   15.8933   -4.5740    0.0000 H   0  0  0  0  0  0  0  0  0  0  0  0
   15.0464   -4.3470    0.0000 H   0  0  0  0  0  0  0  0  0  0  0  0
   14.8195   -5.1940    0.0000 H   0  0  0  0  0  0  0  0  0  0  0  0
   15.8195   -6.9260    0.0000 H   0  0  0  0  0  0  0  0  0  0  0  0
   16.6664   -7.1530    0.0000 H   0  0  0  0  0  0  0  0  0  0  0  0
   16.8933   -6.3060    0.0000 H   0  0  0  0  0  0  0  0  0  0  0  0
    1.6900    5.7869    0.0000 H   0  0  0  0  0  0  0  0  0  0  0  0
    1.4631    4.9400    0.0000 H   0  0  0  0  0  0  0  0  0  0  0  0
    2.3100    4.7131    0.0000 H   0  0  0  0  0  0  0  0  0  0  0  0
    2.8291    4.5740    0.0000 H   0  0  0  0  0  0  0  0  0  0  0  0
    3.6760    4.3470    0.0000 H   0  0  0  0  0  0  0  0  0  0  0  0
    3.9030    5.1940    0.0000 H   0  0  0  0  0  0  0  0  0  0  0  0
    2.9030    6.9260    0.0000 H   0  0  0  0  0  0  0  0  0  0  0  0
    2.0560    7.1530    0.0000 H   0  0  0  0  0  0  0  0  0  0  0  0
    1.8291    6.3060    0.0000 H   0  0  0  0  0  0  0  0  0  0  0  0
   11.7817   -5.6423    0.0000 H   0  0  0  0  0  0  0  0  0  0  0  0
   12.1803   -6.3326    0.0000 H   0  0  0  0  0  0  0  0  0  0  0  0
    6.9407    5.6423    0.0000 H   0  0  0  0  0  0  0  0  0  0  0  0
    6.5422    6.3326    0.0000 H   0  0  0  0  0  0  0  0  0  0  0  0
   13.0029   -4.8577    0.0000 H   0  0  0  0  0  0  0  0  0  0  0  0
   12.6044   -4.1674    0.0000 H   0  0  0  0  0  0  0  0  0  0  0  0
    5.7196    4.8577    0.0000 H   0  0  0  0  0  0  0  0  0  0  0  0
    6.1181    4.1674    0.0000 H   0  0  0  0  0  0  0  0  0  0  0  0
   15.8564   -8.3700    0.0000 H   0  0  0  0  0  0  0  0  0  0  0  0
    2.8660    8.3700    0.0000 H   0  0  0  0  0  0  0  0  0  0  0  0
   10.0497   -2.6423    0.0000 H   0  0  0  0  0  0  0  0  0  0  0  0
   10.4482   -3.3326    0.0000 H   0  0  0  0  0  0  0  0  0  0  0  0
    8.6728    2.6423    0.0000 H   0  0  0  0  0  0  0  0  0  0  0  0
    8.2742    3.3326    0.0000 H   0  0  0  0  0  0  0  0  0  0  0  0
   11.2708   -1.8577    0.0000 H   0  0  0  0  0  0  0  0  0  0  0  0
   10.8723   -1.1674    0.0000 H   0  0  0  0  0  0  0  0  0  0  0  0
    7.4516    1.8577    0.0000 H   0  0  0  0  0  0  0  0  0  0  0  0
    7.8501    1.1674    0.0000 H   0  0  0  0  0  0  0  0  0  0  0  0
    9.2573   -1.5600    0.0000 H   0  0  0  0  0  0  0  0  0  0  0  0
    9.4651    1.5600    0.0000 H   0  0  0  0  0  0  0  0  0  0  0  0
  1 19  1  0  0  0  0
  1 99  1  0  0  0  0
  2 20  1  0  0  0  0
  2100  1  0  0  0  0
  3 43  1  0  0  0  0
  3 45  1  0  0  0  0
  4 44  1  0  0  0  0
  4 46  1  0  0  0  0
  5 43  2  0  0  0  0
  6 44  2  0  0  0  0
  7 49  2  0  0  0  0
  8 50  2  0  0  0  0
  9 47  1  0  0  0  0
  9 49  1  0  0  0  0
  9109  1  0  0  0  0
 10 48  1  0  0  0  0
 10 50  1  0  0  0  0
 10110  1  0  0  0  0
 11 15  1  0  0  0  0
 11 27  1  0  0  0  0
 11 28  1  0  0  0  0
 11 29  1  0  0  0  0
 12 16  1  0  0  0  0
 12 30  1  0  0  0  0
 12 31  1  0  0  0  0
 12 32  1  0  0  0  0
 13 17  1  0  0  0  0
 13 33  1  0  0  0  0
 13 34  1  0  0  0  0
 13 35  1  0  0  0  0
 14 18  1  0  0  0  0
 14 36  1  0  0  0  0
 14 37  1  0  0  0  0
 14 38  1  0  0  0  0
 15 19  2  0  0  0  0
 15 23  1  0  0  0  0
 16 20  2  0  0  0  0
 16 24  1  0  0  0  0
 17 19  1  0  0  0  0
 17 25  2  0  0  0  0
 18 20  1  0  0  0  0
 18 26  2  0  0  0  0
 21 23  2  0  0  0  0
 21 25  1  0  0  0  0
 21 39  1  0  0  0  0
 22 24  2  0  0  0  0
 22 26  1  0  0  0  0
 22 40  1  0  0  0  0
 23 51  1  0  0  0  0
 24 52  1  0  0  0  0
 25 53  1  0  0  0  0
 26 54  1  0  0  0  0
 27 55  1  0  0  0  0
 27 56  1  0  0  0  0
 27 57  1  0  0  0  0
 28 58  1  0  0  0  0
 28 59  1  0  0  0  0
 28 60  1  0  0  0  0
 29 61  1  0  0  0  0
 29 62  1  0  0  0  0
 29 63  1  0  0  0  0
 30 64  1  0  0  0  0
 30 65  1  0  0  0  0
 30 66  1  0  0  0  0
 31 67  1  0  0  0  0
 31 68  1  0  0  0  0
 31 69  1  0  0  0  0
 32 70  1  0  0  0  0
 32 71  1  0  0  0  0
 32 72  1  0  0  0  0
 33 73  1  0  0  0  0
 33 74  1  0  0  0  0
 33 75  1  0  0  0  0
 34 76  1  0  0  0  0
 34 77  1  0  0  0  0
 34 78  1  0  0  0  0
 35 79  1  0  0  0  0
 35 80  1  0  0  0  0
 35 81  1  0  0  0  0
 36 82  1  0  0  0  0
 36 83  1  0  0  0  0
 36 84  1  0  0  0  0
 37 85  1  0  0  0  0
 37 86  1  0  0  0  0
 37 87  1  0  0  0  0
 38 88  1  0  0  0  0
 38 89  1  0  0  0  0
 38 90  1  0  0  0  0
 39 41  1  0  0  0  0
 39 91  1  0  0  0  0
 39 92  1  0  0  0  0
 40 42  1  0  0  0  0
 40 93  1  0  0  0  0
 40 94  1  0  0  0  0
 41 43  1  0  0  0  0
 41 95  1  0  0  0  0
 41 96  1  0  0  0  0
 42 44  1  0  0  0  0
 42 97  1  0  0  0  0
 42 98  1  0  0  0  0
 45 47  1  0  0  0  0
 45101  1  0  0  0  0
 45102  1  0  0  0  0
 46 48  1  0  0  0  0
 46103  1  0  0  0  0
 46104  1  0  0  0  0
 47105  1  0  0  0  0
 47106  1  0  0  0  0
 48107  1  0  0  0  0
 48108  1  0  0  0  0
 49 50  1  0  0  0  0
M  END
> <PUBCHEM_COMPOUND_CID>
93405

> <PUBCHEM_COMPOUND_CANONICALIZED>
1

> <PUBCHEM_CACTVS_COMPLEXITY>
990

> <PUBCHEM_CACTVS_HBOND_ACCEPTOR>
8

> <PUBCHEM_CACTVS_HBOND_DONOR>
4

> <PUBCHEM_CACTVS_ROTATABLE_BOND>
18

> <PUBCHEM_CACTVS_SUBSKEYS>
AAADcfB/PAAAAAAAAAAAAAAAAAAAAAAAAAAwYAAAAAAAAAABQAAAHgAQCAAADgThmAYyDoLABgCIAiHSGAACAAAgIAAAiIGMCIgKZjKCETKTcAAk1hGYmAeIyOCPoAACAAAIAABAAAQAABAAAAAAAAAAAA==

> <PUBCHEM_IUPAC_OPENEYE_NAME>
2-[[2-[2-[3-(3,5-ditert-butyl-4-hydroxy-phenyl)propanoyloxy]ethylamino]-2-oxo-acetyl]amino]ethyl 3-(3,5-ditert-butyl-4-hydroxy-phenyl)propanoate

> <PUBCHEM_IUPAC_CAS_NAME>
3-(3,5-ditert-butyl-4-hydroxyphenyl)propanoic acid 2-[[2-[2-[3-(3,5-ditert-butyl-4-hydroxyphenyl)-1-oxopropoxy]ethylamino]-1,2-dioxoethyl]amino]ethyl ester

> <PUBCHEM_IUPAC_NAME_MARKUP>
2-[[2-[2-[3-(3,5-di<I>tert</I>-butyl-4-hydroxyphenyl)propanoyloxy]ethylamino]-2-oxoacetyl]amino]ethyl 3-(3,5-di<I>tert</I>-butyl-4-hydroxyphenyl)propanoate

> <PUBCHEM_IUPAC_NAME>
2-[[2-[2-[3-(3,5-ditert-butyl-4-hydroxyphenyl)propanoyloxy]ethylamino]-2-oxoacetyl]amino]ethyl 3-(3,5-ditert-butyl-4-hydroxyphenyl)propanoate

> <PUBCHEM_IUPAC_SYSTEMATIC_NAME>
2-[[2-[2-[3-(3,5-ditert-butyl-4-oxidanyl-phenyl)propanoyloxy]ethylamino]-2-oxidanylidene-ethanoyl]amino]ethyl 3-(3,5-ditert-butyl-4-oxidanyl-phenyl)propanoate

> <PUBCHEM_IUPAC_TRADITIONAL_NAME>
3-(3,5-ditert-butyl-4-hydroxy-phenyl)propionic acid 2-[[2-[2-[3-(3,5-ditert-butyl-4-hydroxy-phenyl)propanoyloxy]ethylamino]-2-keto-acetyl]amino]ethyl ester

> <PUBCHEM_IUPAC_INCHI>
InChI=1S/C40H60N2O8/c1-37(2,3)27-21-25(22-28(33(27)45)38(4,5)6)13-15-31(43)49-19-17-41-35(47)36(48)42-18-20-50-32(44)16-14-26-23-29(39(7,8)9)34(46)30(24-26)40(10,11)12/h21-24,45-46H,13-20H2,1-12H3,(H,41,47)(H,42,48)

> <PUBCHEM_IUPAC_INCHIKEY>
OXWDLAHVJDUQJM-UHFFFAOYSA-N

> <PUBCHEM_XLOGP3_AA>
8.8

> <PUBCHEM_EXACT_MASS>
696.43496688

> <PUBCHEM_MOLECULAR_FORMULA>
C40H60N2O8

> <PUBCHEM_MOLECULAR_WEIGHT>
696.9

> <PUBCHEM_SMILES>
CC(C)(C)C1=CC(=CC(=C1O)C(C)(C)C)CCC(=O)OCCNC(=O)C(=O)NCCOC(=O)CCC2=CC(=C(C(=C2)C(C)(C)C)O)C(C)(C)C

> <PUBCHEM_OPENEYE_CAN_SMILES>
CC(C)(C)C1=CC(=CC(=C1O)C(C)(C)C)CCC(=O)OCCNC(=O)C(=O)NCCOC(=O)CCC2=CC(=C(C(=C2)C(C)(C)C)O)C(C)(C)C

> <PUBCHEM_OPENEYE_ISO_SMILES>
CC(C)(C)C1=CC(=CC(=C1O)C(C)(C)C)CCC(=O)OCCNC(=O)C(=O)NCCOC(=O)CCC2=CC(=C(C(=C2)C(C)(C)C)O)C(C)(C)C

> <PUBCHEM_CACTVS_TPSA>
151

> <PUBCHEM_MONOISOTOPIC_WEIGHT>
696.43496688

> <PUBCHEM_TOTAL_CHARGE>
0

> <PUBCHEM_HEAVY_ATOM_COUNT>
50

> <PUBCHEM_ATOM_DEF_STEREO_COUNT>
0

> <PUBCHEM_ATOM_UDEF_STEREO_COUNT>
0

> <PUBCHEM_BOND_DEF_STEREO_COUNT>
0

> <PUBCHEM_BOND_UDEF_STEREO_COUNT>
0

> <PUBCHEM_ISOTOPIC_ATOM_COUNT>
0

> <PUBCHEM_COMPONENT_COUNT>
1

> <PUBCHEM_CACTVS_TAUTO_COUNT>
-1

> <PUBCHEM_COORDINATE_TYPE>
1
5
255

> <PUBCHEM_BONDANNOTATIONS>
15  19  8
15  23  8
16  20  8
16  24  8
17  19  8
17  25  8
18  20  8
18  26  8
21  23  8
21  25  8
22  24  8
22  26  8

$$$$
