93418
  -OEChem-04042513062D

115115  0     0  0  0  0  0  0999 V2000
   12.4881    3.0000    0.0000 Cl  0  0  0  0  0  0  0  0  0  0  0  0
    9.0240    3.0000    0.0000 Cl  0  0  0  0  0  0  0  0  0  0  0  0
   10.7561    0.0000    0.0000 Cl  0  0  0  0  0  0  0  0  0  0  0  0
    9.0240    5.9030    0.0000 N   0  0  0  0  0  0  0  0  0  0  0  0
   12.4881   16.9030    0.0000 N   0  0  0  0  0  0  0  0  0  0  0  0
    9.0240    8.9030    0.0000 N   0  0  0  0  0  0  0  0  0  0  0  0
   12.4881   13.9030    0.0000 N   0  0  0  0  0  0  0  0  0  0  0  0
    0.5369    8.4030    0.0000 N   0  0  0  0  0  0  0  0  0  0  0  0
   10.7561    3.0000    0.0000 N   0  0  0  0  0  0  0  0  0  0  0  0
   11.6221    1.5000    0.0000 N   0  0  0  0  0  0  0  0  0  0  0  0
    9.8900    1.5000    0.0000 N   0  0  0  0  0  0  0  0  0  0  0  0
    8.1580    6.4030    0.0000 C   0  0  0  0  0  0  0  0  0  0  0  0
    9.8900    6.4030    0.0000 C   0  0  0  0  0  0  0  0  0  0  0  0
   13.3541   16.4030    0.0000 C   0  0  0  0  0  0  0  0  0  0  0  0
   11.6221   16.4030    0.0000 C   0  0  0  0  0  0  0  0  0  0  0  0
    9.0240    7.9030    0.0000 C   0  0  0  0  0  0  0  0  0  0  0  0
   12.4881   14.9030    0.0000 C   0  0  0  0  0  0  0  0  0  0  0  0
    8.1580    7.4030    0.0000 C   0  0  0  0  0  0  0  0  0  0  0  0
    9.8900    7.4030    0.0000 C   0  0  0  0  0  0  0  0  0  0  0  0
   13.3541   15.4030    0.0000 C   0  0  0  0  0  0  0  0  0  0  0  0
   11.6221   15.4030    0.0000 C   0  0  0  0  0  0  0  0  0  0  0  0
    7.1580    6.4030    0.0000 C   0  0  0  0  0  0  0  0  0  0  0  0
    7.6580    5.5369    0.0000 C   0  0  0  0  0  0  0  0  0  0  0  0
   10.8900    6.4030    0.0000 C   0  0  0  0  0  0  0  0  0  0  0  0
   10.3900    5.5369    0.0000 C   0  0  0  0  0  0  0  0  0  0  0  0
   14.3541   16.4030    0.0000 C   0  0  0  0  0  0  0  0  0  0  0  0
   13.8541   17.2690    0.0000 C   0  0  0  0  0  0  0  0  0  0  0  0
   11.1221   17.2690    0.0000 C   0  0  0  0  0  0  0  0  0  0  0  0
   10.6221   16.4030    0.0000 C   0  0  0  0  0  0  0  0  0  0  0  0
    9.8900    9.4030    0.0000 C   0  0  0  0  0  0  0  0  0  0  0  0
   11.6221   13.4030    0.0000 C   0  0  0  0  0  0  0  0  0  0  0  0
    9.8900   10.4030    0.0000 C   0  0  0  0  0  0  0  0  0  0  0  0
   11.6221   12.4030    0.0000 C   0  0  0  0  0  0  0  0  0  0  0  0
   10.7560   10.9030    0.0000 C   0  0  0  0  0  0  0  0  0  0  0  0
   10.7560   11.9030    0.0000 C   0  0  0  0  0  0  0  0  0  0  0  0
    3.1350    8.9030    0.0000 C   0  0  0  0  0  0  0  0  0  0  0  0
    2.2690    9.4030    0.0000 C   0  0  0  0  0  0  0  0  0  0  0  0
    1.4030    8.9030    0.0000 C   0  0  0  0  0  0  0  0  0  0  0  0
    4.0010    8.4030    0.0000 C   0  0  0  0  0  0  0  0  0  0  0  0
    3.6350    9.7690    0.0000 C   0  0  0  0  0  0  0  0  0  0  0  0
    2.6350    8.0369    0.0000 C   0  0  0  0  0  0  0  0  0  0  0  0
    0.9030    9.7690    0.0000 C   0  0  0  0  0  0  0  0  0  0  0  0
    1.9030    8.0369    0.0000 C   0  0  0  0  0  0  0  0  0  0  0  0
   11.6221    2.5000    0.0000 C   0  0  0  0  0  0  0  0  0  0  0  0
    9.8900    2.5000    0.0000 C   0  0  0  0  0  0  0  0  0  0  0  0
   10.7561    1.0000    0.0000 C   0  0  0  0  0  0  0  0  0  0  0  0
    8.4871    8.2130    0.0000 H   0  0  0  0  0  0  0  0  0  0  0  0
   11.9512   14.5930    0.0000 H   0  0  0  0  0  0  0  0  0  0  0  0
    7.9459    7.9856    0.0000 H   0  0  0  0  0  0  0  0  0  0  0  0
    7.5474    7.2953    0.0000 H   0  0  0  0  0  0  0  0  0  0  0  0
   10.5006    7.2953    0.0000 H   0  0  0  0  0  0  0  0  0  0  0  0
   10.1021    7.9856    0.0000 H   0  0  0  0  0  0  0  0  0  0  0  0
   13.5662   14.8204    0.0000 H   0  0  0  0  0  0  0  0  0  0  0  0
   13.9647   15.5106    0.0000 H   0  0  0  0  0  0  0  0  0  0  0  0
   11.0115   15.5106    0.0000 H   0  0  0  0  0  0  0  0  0  0  0  0
   11.4100   14.8204    0.0000 H   0  0  0  0  0  0  0  0  0  0  0  0
    9.0240    5.2830    0.0000 H   0  0  0  0  0  0  0  0  0  0  0  0
   12.4881   17.5230    0.0000 H   0  0  0  0  0  0  0  0  0  0  0  0
    7.1580    7.0230    0.0000 H   0  0  0  0  0  0  0  0  0  0  0  0
    6.5380    6.4030    0.0000 H   0  0  0  0  0  0  0  0  0  0  0  0
    7.1580    5.7830    0.0000 H   0  0  0  0  0  0  0  0  0  0  0  0
    7.1210    5.8469    0.0000 H   0  0  0  0  0  0  0  0  0  0  0  0
    7.3480    5.0000    0.0000 H   0  0  0  0  0  0  0  0  0  0  0  0
    8.1949    5.2269    0.0000 H   0  0  0  0  0  0  0  0  0  0  0  0
   10.8900    5.7830    0.0000 H   0  0  0  0  0  0  0  0  0  0  0  0
   11.5100    6.4030    0.0000 H   0  0  0  0  0  0  0  0  0  0  0  0
   10.8900    7.0230    0.0000 H   0  0  0  0  0  0  0  0  0  0  0  0
    9.8531    5.2269    0.0000 H   0  0  0  0  0  0  0  0  0  0  0  0
   10.7000    5.0000    0.0000 H   0  0  0  0  0  0  0  0  0  0  0  0
   10.9270    5.8469    0.0000 H   0  0  0  0  0  0  0  0  0  0  0  0
   14.3541   15.7830    0.0000 H   0  0  0  0  0  0  0  0  0  0  0  0
   14.9741   16.4030    0.0000 H   0  0  0  0  0  0  0  0  0  0  0  0
   14.3541   17.0230    0.0000 H   0  0  0  0  0  0  0  0  0  0  0  0
   14.3911   16.9590    0.0000 H   0  0  0  0  0  0  0  0  0  0  0  0
   14.1641   17.8059    0.0000 H   0  0  0  0  0  0  0  0  0  0  0  0
   13.3172   17.5790    0.0000 H   0  0  0  0  0  0  0  0  0  0  0  0
   11.6590   17.5790    0.0000 H   0  0  0  0  0  0  0  0  0  0  0  0
   10.8121   17.8059    0.0000 H   0  0  0  0  0  0  0  0  0  0  0  0
   10.5851   16.9590    0.0000 H   0  0  0  0  0  0  0  0  0  0  0  0
   10.6221   17.0230    0.0000 H   0  0  0  0  0  0  0  0  0  0  0  0
   10.0021   16.4030    0.0000 H   0  0  0  0  0  0  0  0  0  0  0  0
   10.6221   15.7830    0.0000 H   0  0  0  0  0  0  0  0  0  0  0  0
    8.4871    9.2130    0.0000 H   0  0  0  0  0  0  0  0  0  0  0  0
   13.0250   13.5930    0.0000 H   0  0  0  0  0  0  0  0  0  0  0  0
   10.1021    8.8204    0.0000 H   0  0  0  0  0  0  0  0  0  0  0  0
   10.5006    9.5106    0.0000 H   0  0  0  0  0  0  0  0  0  0  0  0
   11.4100   13.9856    0.0000 H   0  0  0  0  0  0  0  0  0  0  0  0
   11.0115   13.2953    0.0000 H   0  0  0  0  0  0  0  0  0  0  0  0
    9.6780   10.9856    0.0000 H   0  0  0  0  0  0  0  0  0  0  0  0
    9.2794   10.2953    0.0000 H   0  0  0  0  0  0  0  0  0  0  0  0
   11.8341   11.8204    0.0000 H   0  0  0  0  0  0  0  0  0  0  0  0
   12.2327   12.5106    0.0000 H   0  0  0  0  0  0  0  0  0  0  0  0
   10.9681   10.3204    0.0000 H   0  0  0  0  0  0  0  0  0  0  0  0
   11.3666   11.0106    0.0000 H   0  0  0  0  0  0  0  0  0  0  0  0
   10.5440   12.4856    0.0000 H   0  0  0  0  0  0  0  0  0  0  0  0
   10.1455   11.7953    0.0000 H   0  0  0  0  0  0  0  0  0  0  0  0
    2.6675    9.8779    0.0000 H   0  0  0  0  0  0  0  0  0  0  0  0
    1.8705    9.8779    0.0000 H   0  0  0  0  0  0  0  0  0  0  0  0
    3.6910    7.8660    0.0000 H   0  0  0  0  0  0  0  0  0  0  0  0
    4.5380    8.0930    0.0000 H   0  0  0  0  0  0  0  0  0  0  0  0
    4.3110    8.9399    0.0000 H   0  0  0  0  0  0  0  0  0  0  0  0
    4.1720    9.4590    0.0000 H   0  0  0  0  0  0  0  0  0  0  0  0
    3.9450   10.3059    0.0000 H   0  0  0  0  0  0  0  0  0  0  0  0
    3.0981   10.0790    0.0000 H   0  0  0  0  0  0  0  0  0  0  0  0
    2.0981    8.3469    0.0000 H   0  0  0  0  0  0  0  0  0  0  0  0
    2.3250    7.5000    0.0000 H   0  0  0  0  0  0  0  0  0  0  0  0
    3.1720    7.7269    0.0000 H   0  0  0  0  0  0  0  0  0  0  0  0
    1.4399   10.0790    0.0000 H   0  0  0  0  0  0  0  0  0  0  0  0
    0.5930   10.3059    0.0000 H   0  0  0  0  0  0  0  0  0  0  0  0
    0.3660    9.4590    0.0000 H   0  0  0  0  0  0  0  0  0  0  0  0
    1.3660    7.7269    0.0000 H   0  0  0  0  0  0  0  0  0  0  0  0
    2.2130    7.5000    0.0000 H   0  0  0  0  0  0  0  0  0  0  0  0
    2.4399    8.3469    0.0000 H   0  0  0  0  0  0  0  0  0  0  0  0
    0.0000    8.7130    0.0000 H   0  0  0  0  0  0  0  0  0  0  0  0
    0.5369    7.7830    0.0000 H   0  0  0  0  0  0  0  0  0  0  0  0
  1 44  1  0  0  0  0
  2 45  1  0  0  0  0
  3 46  1  0  0  0  0
  4 12  1  0  0  0  0
  4 13  1  0  0  0  0
  4 57  1  0  0  0  0
  5 14  1  0  0  0  0
  5 15  1  0  0  0  0
  5 58  1  0  0  0  0
  6 16  1  0  0  0  0
  6 30  1  0  0  0  0
  6 83  1  0  0  0  0
  7 17  1  0  0  0  0
  7 31  1  0  0  0  0
  7 84  1  0  0  0  0
  8 38  1  0  0  0  0
  8114  1  0  0  0  0
  8115  1  0  0  0  0
  9 44  2  0  0  0  0
  9 45  1  0  0  0  0
 10 44  1  0  0  0  0
 10 46  2  0  0  0  0
 11 45  2  0  0  0  0
 11 46  1  0  0  0  0
 12 18  1  0  0  0  0
 12 22  1  0  0  0  0
 12 23  1  0  0  0  0
 13 19  1  0  0  0  0
 13 24  1  0  0  0  0
 13 25  1  0  0  0  0
 14 20  1  0  0  0  0
 14 26  1  0  0  0  0
 14 27  1  0  0  0  0
 15 21  1  0  0  0  0
 15 28  1  0  0  0  0
 15 29  1  0  0  0  0
 16 18  1  0  0  0  0
 16 19  1  0  0  0  0
 16 47  1  0  0  0  0
 17 20  1  0  0  0  0
 17 21  1  0  0  0  0
 17 48  1  0  0  0  0
 18 49  1  0  0  0  0
 18 50  1  0  0  0  0
 19 51  1  0  0  0  0
 19 52  1  0  0  0  0
 20 53  1  0  0  0  0
 20 54  1  0  0  0  0
 21 55  1  0  0  0  0
 21 56  1  0  0  0  0
 22 59  1  0  0  0  0
 22 60  1  0  0  0  0
 22 61  1  0  0  0  0
 23 62  1  0  0  0  0
 23 63  1  0  0  0  0
 23 64  1  0  0  0  0
 24 65  1  0  0  0  0
 24 66  1  0  0  0  0
 24 67  1  0  0  0  0
 25 68  1  0  0  0  0
 25 69  1  0  0  0  0
 25 70  1  0  0  0  0
 26 71  1  0  0  0  0
 26 72  1  0  0  0  0
 26 73  1  0  0  0  0
 27 74  1  0  0  0  0
 27 75  1  0  0  0  0
 27 76  1  0  0  0  0
 28 77  1  0  0  0  0
 28 78  1  0  0  0  0
 28 79  1  0  0  0  0
 29 80  1  0  0  0  0
 29 81  1  0  0  0  0
 29 82  1  0  0  0  0
 30 32  1  0  0  0  0
 30 85  1  0  0  0  0
 30 86  1  0  0  0  0
 31 33  1  0  0  0  0
 31 87  1  0  0  0  0
 31 88  1  0  0  0  0
 32 34  1  0  0  0  0
 32 89  1  0  0  0  0
 32 90  1  0  0  0  0
 33 35  1  0  0  0  0
 33 91  1  0  0  0  0
 33 92  1  0  0  0  0
 34 35  1  0  0  0  0
 34 93  1  0  0  0  0
 34 94  1  0  0  0  0
 35 95  1  0  0  0  0
 35 96  1  0  0  0  0
 36 37  1  0  0  0  0
 36 39  1  0  0  0  0
 36 40  1  0  0  0  0
 36 41  1  0  0  0  0
 37 38  1  0  0  0  0
 37 97  1  0  0  0  0
 37 98  1  0  0  0  0
 38 42  1  0  0  0  0
 38 43  1  0  0  0  0
 39 99  1  0  0  0  0
 39100  1  0  0  0  0
 39101  1  0  0  0  0
 40102  1  0  0  0  0
 40103  1  0  0  0  0
 40104  1  0  0  0  0
 41105  1  0  0  0  0
 41106  1  0  0  0  0
 41107  1  0  0  0  0
 42108  1  0  0  0  0
 42109  1  0  0  0  0
 42110  1  0  0  0  0
 43111  1  0  0  0  0
 43112  1  0  0  0  0
 43113  1  0  0  0  0
M  END
> <PUBCHEM_COMPOUND_CID>
93418

> <PUBCHEM_COMPOUND_CANONICALIZED>
1

> <PUBCHEM_CACTVS_COMPLEXITY>
562

> <PUBCHEM_CACTVS_HBOND_ACCEPTOR>
8

> <PUBCHEM_CACTVS_HBOND_DONOR>
5

> <PUBCHEM_CACTVS_ROTATABLE_BOND>
11

> <PUBCHEM_CACTVS_SUBSKEYS>
AAADcfB/wAAGAAAAAAAAAAAAAAAAAAAAAAAsWLAAAAAAAAABgAAAHAIQAAAADqjBAAQDEAbIEAAgAAAAJAAAAAkAAIABAIAIAACACAIAwAAEAAAIEACAAAEQgEANAAAAAAAAAAAAAAAAAAAAAAAAAAAAAA==

> <PUBCHEM_IUPAC_OPENEYE_NAME>
N,N'-bis(2,2,6,6-tetramethyl-4-piperidyl)hexane-1,6-diamine;2,4,6-trichloro-1,3,5-triazine;2,4,4-trimethylpentan-2-amine

> <PUBCHEM_IUPAC_CAS_NAME>
N,N'-bis(2,2,6,6-tetramethyl-4-piperidinyl)hexane-1,6-diamine;2,4,6-trichloro-1,3,5-triazine;2,4,4-trimethyl-2-pentanamine

> <PUBCHEM_IUPAC_NAME_MARKUP>
<I>N</I>,<I>N</I>&apos;-bis(2,2,6,6-tetramethylpiperidin-4-yl)hexane-1,6-diamine;2,4,6-trichloro-1,3,5-triazine;2,4,4-trimethylpentan-2-amine

> <PUBCHEM_IUPAC_NAME>
N,N'-bis(2,2,6,6-tetramethylpiperidin-4-yl)hexane-1,6-diamine;2,4,6-trichloro-1,3,5-triazine;2,4,4-trimethylpentan-2-amine

> <PUBCHEM_IUPAC_SYSTEMATIC_NAME>
N,N'-bis(2,2,6,6-tetramethylpiperidin-4-yl)hexane-1,6-diamine;2,4,4-trimethylpentan-2-amine;2,4,6-tris(chloranyl)-1,3,5-triazine

> <PUBCHEM_IUPAC_TRADITIONAL_NAME>
cyanuric chloride;1,1,3,3-tetramethylbutylamine;(2,2,6,6-tetramethyl-4-piperidyl)-[6-[(2,2,6,6-tetramethyl-4-piperidyl)amino]hexyl]amine

> <PUBCHEM_IUPAC_INCHI>
InChI=1S/C24H50N4.C8H19N.C3Cl3N3/c1-21(2)15-19(16-22(3,4)27-21)25-13-11-9-10-12-14-26-20-17-23(5,6)28-24(7,8)18-20;1-7(2,3)6-8(4,5)9;4-1-7-2(5)9-3(6)8-1/h19-20,25-28H,9-18H2,1-8H3;6,9H2,1-5H3;

> <PUBCHEM_IUPAC_INCHIKEY>
ORECYURYFJYPKY-UHFFFAOYSA-N

> <PUBCHEM_EXACT_MASS>
706.471077

> <PUBCHEM_MOLECULAR_FORMULA>
C35H69Cl3N8

> <PUBCHEM_MOLECULAR_WEIGHT>
708.3

> <PUBCHEM_SMILES>
CC1(CC(CC(N1)(C)C)NCCCCCCNC2CC(NC(C2)(C)C)(C)C)C.CC(C)(C)CC(C)(C)N.C1(=NC(=NC(=N1)Cl)Cl)Cl

> <PUBCHEM_OPENEYE_CAN_SMILES>
CC1(CC(CC(N1)(C)C)NCCCCCCNC2CC(NC(C2)(C)C)(C)C)C.CC(C)(C)CC(C)(C)N.C1(=NC(=NC(=N1)Cl)Cl)Cl

> <PUBCHEM_OPENEYE_ISO_SMILES>
CC1(CC(CC(N1)(C)C)NCCCCCCNC2CC(NC(C2)(C)C)(C)C)C.CC(C)(C)CC(C)(C)N.C1(=NC(=NC(=N1)Cl)Cl)Cl

> <PUBCHEM_CACTVS_TPSA>
113

> <PUBCHEM_MONOISOTOPIC_WEIGHT>
706.471077

> <PUBCHEM_TOTAL_CHARGE>
0

> <PUBCHEM_HEAVY_ATOM_COUNT>
46

> <PUBCHEM_ATOM_DEF_STEREO_COUNT>
0

> <PUBCHEM_ATOM_UDEF_STEREO_COUNT>
0

> <PUBCHEM_BOND_DEF_STEREO_COUNT>
0

> <PUBCHEM_BOND_UDEF_STEREO_COUNT>
0

> <PUBCHEM_ISOTOPIC_ATOM_COUNT>
0

> <PUBCHEM_COMPONENT_COUNT>
3

> <PUBCHEM_CACTVS_TAUTO_COUNT>
-1

> <PUBCHEM_COORDINATE_TYPE>
1
5
255

> <PUBCHEM_BONDANNOTATIONS>
10  44  8
10  46  8
11  45  8
11  46  8
9  44  8
9  45  8

$$$$
