93821
  -OEChem-04042512412D

 62 61  0     1  0  0  0  0  0999 V2000
    5.1350    1.2500    0.0000 O   0  0  0  0  0  0  0  0  0  0  0  0
    9.4651   -1.2500    0.0000 O   0  0  0  0  0  0  0  0  0  0  0  0
    2.5369    1.7500    0.0000 O   0  0  0  0  0  0  0  0  0  0  0  0
    3.4030   -2.7500    0.0000 O   0  0  0  0  0  0  0  0  0  0  0  0
   12.0632   -1.7500    0.0000 O   0  0  0  0  0  0  0  0  0  0  0  0
   11.1972    2.7500    0.0000 O   0  0  0  0  0  0  0  0  0  0  0  0
    4.2690   -0.2500    0.0000 N   0  0  0  0  0  0  0  0  0  0  0  0
   10.3312    0.2500    0.0000 N   0  0  0  0  0  0  0  0  0  0  0  0
    6.8671    0.2500    0.0000 C   0  0  0  0  0  0  0  0  0  0  0  0
    7.7331   -0.2500    0.0000 C   0  0  0  0  0  0  0  0  0  0  0  0
    6.0010   -0.2500    0.0000 C   0  0  0  0  0  0  0  0  0  0  0  0
    8.5991    0.2500    0.0000 C   0  0  0  0  0  0  0  0  0  0  0  0
    3.4030    0.2500    0.0000 C   0  0  0  0  0  0  0  0  0  0  0  0
    4.2690   -1.2500    0.0000 C   0  0  0  0  0  0  0  0  0  0  0  0
   11.1972   -0.2500    0.0000 C   0  0  0  0  0  0  0  0  0  0  0  0
   10.3312    1.2500    0.0000 C   0  0  0  0  0  0  0  0  0  0  0  0
    5.1350    0.2500    0.0000 C   0  0  0  0  0  0  0  0  0  0  0  0
    9.4651   -0.2500    0.0000 C   0  0  0  0  0  0  0  0  0  0  0  0
    3.4030    1.2500    0.0000 C   0  0  3  0  0  0  0  0  0  0  0  0
    3.4030   -1.7500    0.0000 C   0  0  3  0  0  0  0  0  0  0  0  0
   11.1972   -1.2500    0.0000 C   0  0  3  0  0  0  0  0  0  0  0  0
   11.1972    1.7500    0.0000 C   0  0  3  0  0  0  0  0  0  0  0  0
    4.2690    1.7500    0.0000 C   0  0  0  0  0  0  0  0  0  0  0  0
    2.5369   -1.2500    0.0000 C   0  0  0  0  0  0  0  0  0  0  0  0
   10.3312   -1.7500    0.0000 C   0  0  0  0  0  0  0  0  0  0  0  0
   12.0632    1.2500    0.0000 C   0  0  0  0  0  0  0  0  0  0  0  0
    7.2656    0.7249    0.0000 H   0  0  0  0  0  0  0  0  0  0  0  0
    6.4685    0.7249    0.0000 H   0  0  0  0  0  0  0  0  0  0  0  0
    7.3346   -0.7249    0.0000 H   0  0  0  0  0  0  0  0  0  0  0  0
    8.1316   -0.7249    0.0000 H   0  0  0  0  0  0  0  0  0  0  0  0
    5.6025   -0.7249    0.0000 H   0  0  0  0  0  0  0  0  0  0  0  0
    6.3996   -0.7249    0.0000 H   0  0  0  0  0  0  0  0  0  0  0  0
    8.9976    0.7249    0.0000 H   0  0  0  0  0  0  0  0  0  0  0  0
    8.2006    0.7249    0.0000 H   0  0  0  0  0  0  0  0  0  0  0  0
    2.7924    0.3577    0.0000 H   0  0  0  0  0  0  0  0  0  0  0  0
    3.1909   -0.3326    0.0000 H   0  0  0  0  0  0  0  0  0  0  0  0
    4.4810   -1.8326    0.0000 H   0  0  0  0  0  0  0  0  0  0  0  0
    4.8796   -1.1423    0.0000 H   0  0  0  0  0  0  0  0  0  0  0  0
   11.8078   -0.3577    0.0000 H   0  0  0  0  0  0  0  0  0  0  0  0
   11.4092    0.3326    0.0000 H   0  0  0  0  0  0  0  0  0  0  0  0
   10.1191    1.8326    0.0000 H   0  0  0  0  0  0  0  0  0  0  0  0
    9.7206    1.1423    0.0000 H   0  0  0  0  0  0  0  0  0  0  0  0
    3.4030    1.8700    0.0000 H   0  0  0  0  0  0  0  0  0  0  0  0
    3.9399   -2.0600    0.0000 H   0  0  0  0  0  0  0  0  0  0  0  0
   11.1972   -1.8700    0.0000 H   0  0  0  0  0  0  0  0  0  0  0  0
   10.6603    2.0600    0.0000 H   0  0  0  0  0  0  0  0  0  0  0  0
    4.5790    1.2131    0.0000 H   0  0  0  0  0  0  0  0  0  0  0  0
    4.8059    2.0600    0.0000 H   0  0  0  0  0  0  0  0  0  0  0  0
    3.9590    2.2869    0.0000 H   0  0  0  0  0  0  0  0  0  0  0  0
    2.8469   -0.7131    0.0000 H   0  0  0  0  0  0  0  0  0  0  0  0
    2.0000   -0.9400    0.0000 H   0  0  0  0  0  0  0  0  0  0  0  0
    2.2269   -1.7869    0.0000 H   0  0  0  0  0  0  0  0  0  0  0  0
   10.0212   -1.2131    0.0000 H   0  0  0  0  0  0  0  0  0  0  0  0
    9.7942   -2.0600    0.0000 H   0  0  0  0  0  0  0  0  0  0  0  0
   10.6412   -2.2869    0.0000 H   0  0  0  0  0  0  0  0  0  0  0  0
   11.7532    0.7131    0.0000 H   0  0  0  0  0  0  0  0  0  0  0  0
   12.6002    0.9400    0.0000 H   0  0  0  0  0  0  0  0  0  0  0  0
   12.3732    1.7869    0.0000 H   0  0  0  0  0  0  0  0  0  0  0  0
    2.0000    1.4400    0.0000 H   0  0  0  0  0  0  0  0  0  0  0  0
    2.8660   -3.0600    0.0000 H   0  0  0  0  0  0  0  0  0  0  0  0
   12.0632   -2.3700    0.0000 H   0  0  0  0  0  0  0  0  0  0  0  0
   11.7341    3.0600    0.0000 H   0  0  0  0  0  0  0  0  0  0  0  0
  1 17  2  0  0  0  0
  2 18  2  0  0  0  0
  3 19  1  0  0  0  0
  3 59  1  0  0  0  0
  4 20  1  0  0  0  0
  4 60  1  0  0  0  0
  5 21  1  0  0  0  0
  5 61  1  0  0  0  0
  6 22  1  0  0  0  0
  6 62  1  0  0  0  0
  7 13  1  0  0  0  0
  7 14  1  0  0  0  0
  7 17  1  0  0  0  0
  8 15  1  0  0  0  0
  8 16  1  0  0  0  0
  8 18  1  0  0  0  0
  9 10  1  0  0  0  0
  9 11  1  0  0  0  0
  9 27  1  0  0  0  0
  9 28  1  0  0  0  0
 10 12  1  0  0  0  0
 10 29  1  0  0  0  0
 10 30  1  0  0  0  0
 11 17  1  0  0  0  0
 11 31  1  0  0  0  0
 11 32  1  0  0  0  0
 12 18  1  0  0  0  0
 12 33  1  0  0  0  0
 12 34  1  0  0  0  0
 13 19  1  0  0  0  0
 13 35  1  0  0  0  0
 13 36  1  0  0  0  0
 14 20  1  0  0  0  0
 14 37  1  0  0  0  0
 14 38  1  0  0  0  0
 15 21  1  0  0  0  0
 15 39  1  0  0  0  0
 15 40  1  0  0  0  0
 16 22  1  0  0  0  0
 16 41  1  0  0  0  0
 16 42  1  0  0  0  0
 19 23  1  0  0  0  0
 19 43  1  0  0  0  0
 20 24  1  0  0  0  0
 20 44  1  0  0  0  0
 21 25  1  0  0  0  0
 21 45  1  0  0  0  0
 22 26  1  0  0  0  0
 22 46  1  0  0  0  0
 23 47  1  0  0  0  0
 23 48  1  0  0  0  0
 23 49  1  0  0  0  0
 24 50  1  0  0  0  0
 24 51  1  0  0  0  0
 24 52  1  0  0  0  0
 25 53  1  0  0  0  0
 25 54  1  0  0  0  0
 25 55  1  0  0  0  0
 26 56  1  0  0  0  0
 26 57  1  0  0  0  0
 26 58  1  0  0  0  0
M  END
> <PUBCHEM_COMPOUND_CID>
93821

> <PUBCHEM_COMPOUND_CANONICALIZED>
1

> <PUBCHEM_CACTVS_COMPLEXITY>
362

> <PUBCHEM_CACTVS_HBOND_ACCEPTOR>
6

> <PUBCHEM_CACTVS_HBOND_DONOR>
4

> <PUBCHEM_CACTVS_ROTATABLE_BOND>
13

> <PUBCHEM_CACTVS_SUBSKEYS>
AAADcfB7OAAAAAAAAAAAAAAAAAAAAAAAAAAAAAAAAAAAAAAAAAAAHgAACAAACBThgAYCAAMAAgAIAAEQEAAAAAAAAAAAAAEIAAACEBIAgAAEAAAABgCQAAEYCAAAAAAAAAAAAAAAAAAAAAAAAAAAAAAAAA==

> <PUBCHEM_IUPAC_OPENEYE_NAME>
N,N,N',N'-tetrakis(2-hydroxypropyl)hexanediamide

> <PUBCHEM_IUPAC_CAS_NAME>
N,N,N',N'-tetrakis(2-hydroxypropyl)hexanediamide

> <PUBCHEM_IUPAC_NAME_MARKUP>
<I>N</I>,<I>N</I>,<I>N</I>&apos;,<I>N</I>&apos;-tetrakis(2-hydroxypropyl)hexanediamide

> <PUBCHEM_IUPAC_NAME>
N,N,N',N'-tetrakis(2-hydroxypropyl)hexanediamide

> <PUBCHEM_IUPAC_SYSTEMATIC_NAME>
N,N,N',N'-tetrakis(2-oxidanylpropyl)hexanediamide

> <PUBCHEM_IUPAC_TRADITIONAL_NAME>
N,N,N',N'-tetrakis(2-hydroxypropyl)adipamide

> <PUBCHEM_IUPAC_INCHI>
InChI=1S/C18H36N2O6/c1-13(21)9-19(10-14(2)22)17(25)7-5-6-8-18(26)20(11-15(3)23)12-16(4)24/h13-16,21-24H,5-12H2,1-4H3

> <PUBCHEM_IUPAC_INCHIKEY>
UUCAVBDCVCFNIN-UHFFFAOYSA-N

> <PUBCHEM_XLOGP3_AA>
-1.2

> <PUBCHEM_EXACT_MASS>
376.25733687

> <PUBCHEM_MOLECULAR_FORMULA>
C18H36N2O6

> <PUBCHEM_MOLECULAR_WEIGHT>
376.5

> <PUBCHEM_SMILES>
CC(CN(CC(C)O)C(=O)CCCCC(=O)N(CC(C)O)CC(C)O)O

> <PUBCHEM_OPENEYE_CAN_SMILES>
CC(CN(CC(C)O)C(=O)CCCCC(=O)N(CC(C)O)CC(C)O)O

> <PUBCHEM_OPENEYE_ISO_SMILES>
CC(CN(CC(C)O)C(=O)CCCCC(=O)N(CC(C)O)CC(C)O)O

> <PUBCHEM_CACTVS_TPSA>
122

> <PUBCHEM_MONOISOTOPIC_WEIGHT>
376.25733687

> <PUBCHEM_TOTAL_CHARGE>
0

> <PUBCHEM_HEAVY_ATOM_COUNT>
26

> <PUBCHEM_ATOM_DEF_STEREO_COUNT>
0

> <PUBCHEM_ATOM_UDEF_STEREO_COUNT>
4

> <PUBCHEM_BOND_DEF_STEREO_COUNT>
0

> <PUBCHEM_BOND_UDEF_STEREO_COUNT>
0

> <PUBCHEM_ISOTOPIC_ATOM_COUNT>
0

> <PUBCHEM_COMPONENT_COUNT>
1

> <PUBCHEM_CACTVS_TAUTO_COUNT>
-1

> <PUBCHEM_COORDINATE_TYPE>
1
5
255

> <PUBCHEM_BONDANNOTATIONS>
19  3  3
20  4  3
21  5  3
22  6  3

$$$$
