94370
  -OEChem-04042505592D

122121  0     0  0  0  0  0  0999 V2000
   11.5263   -1.2990    0.0000 Sn  0  0  0  0  0  0  0  0  0  0  0  0
   12.3923   -0.7990    0.0000 S   0  0  0  0  0  0  0  0  0  0  0  0
   10.6603   -1.7990    0.0000 S   0  0  0  0  0  0  0  0  0  0  0  0
   11.0263   -0.4330    0.0000 S   0  0  0  0  0  0  0  0  0  0  0  0
   14.9904   -1.2990    0.0000 O   0  0  0  0  0  0  0  0  0  0  0  0
    8.0622   -1.2990    0.0000 O   0  0  0  0  0  0  0  0  0  0  0  0
   11.5263    2.1651    0.0000 O   0  0  0  0  0  0  0  0  0  0  0  0
   14.1244    0.2010    0.0000 O   0  0  0  0  0  0  0  0  0  0  0  0
    8.9282   -2.7990    0.0000 O   0  0  0  0  0  0  0  0  0  0  0  0
   10.0263    1.2990    0.0000 O   0  0  0  0  0  0  0  0  0  0  0  0
   11.5263   -3.0311    0.0000 C   0  0  0  0  0  0  0  0  0  0  0  0
   12.0263   -3.8971    0.0000 C   0  0  0  0  0  0  0  0  0  0  0  0
   12.0263   -2.1651    0.0000 C   0  0  0  0  0  0  0  0  0  0  0  0
   11.5263   -4.7631    0.0000 C   0  0  0  0  0  0  0  0  0  0  0  0
   12.0263   -5.6292    0.0000 C   0  0  0  0  0  0  0  0  0  0  0  0
   11.5263   -6.4952    0.0000 C   0  0  0  0  0  0  0  0  0  0  0  0
   19.3205   -0.7990    0.0000 C   0  0  0  0  0  0  0  0  0  0  0  0
    3.7320   -1.7990    0.0000 C   0  0  0  0  0  0  0  0  0  0  0  0
   11.0263    6.4952    0.0000 C   0  0  0  0  0  0  0  0  0  0  0  0
   18.4545   -1.2990    0.0000 C   0  0  0  0  0  0  0  0  0  0  0  0
    4.5981   -1.2990    0.0000 C   0  0  0  0  0  0  0  0  0  0  0  0
   11.5263    5.6292    0.0000 C   0  0  0  0  0  0  0  0  0  0  0  0
   20.1865   -1.2990    0.0000 C   0  0  0  0  0  0  0  0  0  0  0  0
    2.8660   -1.2990    0.0000 C   0  0  0  0  0  0  0  0  0  0  0  0
   11.5263    7.3612    0.0000 C   0  0  0  0  0  0  0  0  0  0  0  0
   17.5885   -0.7990    0.0000 C   0  0  0  0  0  0  0  0  0  0  0  0
    5.4641   -1.7990    0.0000 C   0  0  0  0  0  0  0  0  0  0  0  0
   11.0263    4.7631    0.0000 C   0  0  0  0  0  0  0  0  0  0  0  0
   12.0263   -7.3612    0.0000 C   0  0  0  0  0  0  0  0  0  0  0  0
   16.7224   -1.2990    0.0000 C   0  0  0  0  0  0  0  0  0  0  0  0
    6.3301   -1.2990    0.0000 C   0  0  0  0  0  0  0  0  0  0  0  0
   11.5263    3.8971    0.0000 C   0  0  0  0  0  0  0  0  0  0  0  0
   21.0526   -0.7990    0.0000 C   0  0  0  0  0  0  0  0  0  0  0  0
   20.1865   -2.2990    0.0000 C   0  0  0  0  0  0  0  0  0  0  0  0
    2.0000   -1.7990    0.0000 C   0  0  0  0  0  0  0  0  0  0  0  0
    2.8660   -0.2990    0.0000 C   0  0  0  0  0  0  0  0  0  0  0  0
   11.0263    8.2272    0.0000 C   0  0  0  0  0  0  0  0  0  0  0  0
   12.5263    7.3612    0.0000 C   0  0  0  0  0  0  0  0  0  0  0  0
   15.8564   -0.7990    0.0000 C   0  0  0  0  0  0  0  0  0  0  0  0
    7.1962   -1.7990    0.0000 C   0  0  0  0  0  0  0  0  0  0  0  0
   11.0263    3.0311    0.0000 C   0  0  0  0  0  0  0  0  0  0  0  0
   13.2583   -1.2990    0.0000 C   0  0  0  0  0  0  0  0  0  0  0  0
    9.7942   -1.2990    0.0000 C   0  0  0  0  0  0  0  0  0  0  0  0
   11.5263    0.4330    0.0000 C   0  0  0  0  0  0  0  0  0  0  0  0
   11.5263   -8.2272    0.0000 C   0  0  0  0  0  0  0  0  0  0  0  0
   14.1244   -0.7990    0.0000 C   0  0  0  0  0  0  0  0  0  0  0  0
    8.9282   -1.7990    0.0000 C   0  0  0  0  0  0  0  0  0  0  0  0
   11.0263    1.2990    0.0000 C   0  0  0  0  0  0  0  0  0  0  0  0
   11.0513   -2.6326    0.0000 H   0  0  0  0  0  0  0  0  0  0  0  0
   11.0513   -3.4296    0.0000 H   0  0  0  0  0  0  0  0  0  0  0  0
   12.5012   -4.2956    0.0000 H   0  0  0  0  0  0  0  0  0  0  0  0
   12.5012   -3.4986    0.0000 H   0  0  0  0  0  0  0  0  0  0  0  0
   12.5012   -2.5636    0.0000 H   0  0  0  0  0  0  0  0  0  0  0  0
   12.5012   -1.7665    0.0000 H   0  0  0  0  0  0  0  0  0  0  0  0
   11.0513   -4.3646    0.0000 H   0  0  0  0  0  0  0  0  0  0  0  0
   11.0513   -5.1617    0.0000 H   0  0  0  0  0  0  0  0  0  0  0  0
   12.5012   -6.0277    0.0000 H   0  0  0  0  0  0  0  0  0  0  0  0
   12.5012   -5.2306    0.0000 H   0  0  0  0  0  0  0  0  0  0  0  0
   11.0513   -6.0967    0.0000 H   0  0  0  0  0  0  0  0  0  0  0  0
   11.0513   -6.8937    0.0000 H   0  0  0  0  0  0  0  0  0  0  0  0
   19.7190   -0.3241    0.0000 H   0  0  0  0  0  0  0  0  0  0  0  0
   18.9220   -0.3241    0.0000 H   0  0  0  0  0  0  0  0  0  0  0  0
    3.3335   -2.2740    0.0000 H   0  0  0  0  0  0  0  0  0  0  0  0
    4.1306   -2.2740    0.0000 H   0  0  0  0  0  0  0  0  0  0  0  0
   10.5513    6.8937    0.0000 H   0  0  0  0  0  0  0  0  0  0  0  0
   10.5513    6.0967    0.0000 H   0  0  0  0  0  0  0  0  0  0  0  0
   18.0560   -1.7740    0.0000 H   0  0  0  0  0  0  0  0  0  0  0  0
   18.8530   -1.7740    0.0000 H   0  0  0  0  0  0  0  0  0  0  0  0
    4.9966   -0.8241    0.0000 H   0  0  0  0  0  0  0  0  0  0  0  0
    4.1996   -0.8241    0.0000 H   0  0  0  0  0  0  0  0  0  0  0  0
   12.0012    5.2306    0.0000 H   0  0  0  0  0  0  0  0  0  0  0  0
   12.0012    6.0277    0.0000 H   0  0  0  0  0  0  0  0  0  0  0  0
   19.6496   -1.6090    0.0000 H   0  0  0  0  0  0  0  0  0  0  0  0
    2.8660   -1.9190    0.0000 H   0  0  0  0  0  0  0  0  0  0  0  0
   10.9063    7.3612    0.0000 H   0  0  0  0  0  0  0  0  0  0  0  0
   17.9870   -0.3241    0.0000 H   0  0  0  0  0  0  0  0  0  0  0  0
   17.1899   -0.3241    0.0000 H   0  0  0  0  0  0  0  0  0  0  0  0
    5.0656   -2.2740    0.0000 H   0  0  0  0  0  0  0  0  0  0  0  0
    5.8626   -2.2740    0.0000 H   0  0  0  0  0  0  0  0  0  0  0  0
   10.5513    5.1617    0.0000 H   0  0  0  0  0  0  0  0  0  0  0  0
   10.5513    4.3646    0.0000 H   0  0  0  0  0  0  0  0  0  0  0  0
   12.5012   -7.7597    0.0000 H   0  0  0  0  0  0  0  0  0  0  0  0
   12.5012   -6.9627    0.0000 H   0  0  0  0  0  0  0  0  0  0  0  0
   16.3239   -1.7740    0.0000 H   0  0  0  0  0  0  0  0  0  0  0  0
   17.1210   -1.7740    0.0000 H   0  0  0  0  0  0  0  0  0  0  0  0
    6.7287   -0.8241    0.0000 H   0  0  0  0  0  0  0  0  0  0  0  0
    5.9316   -0.8241    0.0000 H   0  0  0  0  0  0  0  0  0  0  0  0
   12.0012    3.4986    0.0000 H   0  0  0  0  0  0  0  0  0  0  0  0
   12.0012    4.2956    0.0000 H   0  0  0  0  0  0  0  0  0  0  0  0
   21.3626   -1.3360    0.0000 H   0  0  0  0  0  0  0  0  0  0  0  0
   21.5895   -0.4890    0.0000 H   0  0  0  0  0  0  0  0  0  0  0  0
   20.7426   -0.2621    0.0000 H   0  0  0  0  0  0  0  0  0  0  0  0
   19.5665   -2.2990    0.0000 H   0  0  0  0  0  0  0  0  0  0  0  0
   20.1865   -2.9190    0.0000 H   0  0  0  0  0  0  0  0  0  0  0  0
   20.8065   -2.2990    0.0000 H   0  0  0  0  0  0  0  0  0  0  0  0
    1.6900   -1.2621    0.0000 H   0  0  0  0  0  0  0  0  0  0  0  0
    1.4631   -2.1090    0.0000 H   0  0  0  0  0  0  0  0  0  0  0  0
    2.3100   -2.3360    0.0000 H   0  0  0  0  0  0  0  0  0  0  0  0
    3.4860   -0.2990    0.0000 H   0  0  0  0  0  0  0  0  0  0  0  0
    2.8660    0.3210    0.0000 H   0  0  0  0  0  0  0  0  0  0  0  0
    2.2460   -0.2990    0.0000 H   0  0  0  0  0  0  0  0  0  0  0  0
   11.5632    8.5372    0.0000 H   0  0  0  0  0  0  0  0  0  0  0  0
   10.7163    8.7642    0.0000 H   0  0  0  0  0  0  0  0  0  0  0  0
   10.4893    7.9172    0.0000 H   0  0  0  0  0  0  0  0  0  0  0  0
   12.5263    6.7412    0.0000 H   0  0  0  0  0  0  0  0  0  0  0  0
   13.1463    7.3612    0.0000 H   0  0  0  0  0  0  0  0  0  0  0  0
   12.5263    7.9812    0.0000 H   0  0  0  0  0  0  0  0  0  0  0  0
   16.2549   -0.3241    0.0000 H   0  0  0  0  0  0  0  0  0  0  0  0
   15.4579   -0.3241    0.0000 H   0  0  0  0  0  0  0  0  0  0  0  0
    6.7976   -2.2740    0.0000 H   0  0  0  0  0  0  0  0  0  0  0  0
    7.5947   -2.2740    0.0000 H   0  0  0  0  0  0  0  0  0  0  0  0
   10.5513    3.4296    0.0000 H   0  0  0  0  0  0  0  0  0  0  0  0
   10.5513    2.6326    0.0000 H   0  0  0  0  0  0  0  0  0  0  0  0
   12.8598   -1.7740    0.0000 H   0  0  0  0  0  0  0  0  0  0  0  0
   13.6569   -1.7740    0.0000 H   0  0  0  0  0  0  0  0  0  0  0  0
   10.1928   -0.8241    0.0000 H   0  0  0  0  0  0  0  0  0  0  0  0
    9.3957   -0.8241    0.0000 H   0  0  0  0  0  0  0  0  0  0  0  0
   12.0012    0.0345    0.0000 H   0  0  0  0  0  0  0  0  0  0  0  0
   12.0012    0.8315    0.0000 H   0  0  0  0  0  0  0  0  0  0  0  0
   10.9893   -7.9172    0.0000 H   0  0  0  0  0  0  0  0  0  0  0  0
   11.2163   -8.7642    0.0000 H   0  0  0  0  0  0  0  0  0  0  0  0
   12.0632   -8.5372    0.0000 H   0  0  0  0  0  0  0  0  0  0  0  0
  1  2  1  0  0  0  0
  1  3  1  0  0  0  0
  1  4  1  0  0  0  0
  1 13  1  0  0  0  0
  2 42  1  0  0  0  0
  3 43  1  0  0  0  0
  4 44  1  0  0  0  0
  5 39  1  0  0  0  0
  5 46  1  0  0  0  0
  6 40  1  0  0  0  0
  6 47  1  0  0  0  0
  7 41  1  0  0  0  0
  7 48  1  0  0  0  0
  8 46  2  0  0  0  0
  9 47  2  0  0  0  0
 10 48  2  0  0  0  0
 11 12  1  0  0  0  0
 11 13  1  0  0  0  0
 11 49  1  0  0  0  0
 11 50  1  0  0  0  0
 12 14  1  0  0  0  0
 12 51  1  0  0  0  0
 12 52  1  0  0  0  0
 13 53  1  0  0  0  0
 13 54  1  0  0  0  0
 14 15  1  0  0  0  0
 14 55  1  0  0  0  0
 14 56  1  0  0  0  0
 15 16  1  0  0  0  0
 15 57  1  0  0  0  0
 15 58  1  0  0  0  0
 16 29  1  0  0  0  0
 16 59  1  0  0  0  0
 16 60  1  0  0  0  0
 17 20  1  0  0  0  0
 17 23  1  0  0  0  0
 17 61  1  0  0  0  0
 17 62  1  0  0  0  0
 18 21  1  0  0  0  0
 18 24  1  0  0  0  0
 18 63  1  0  0  0  0
 18 64  1  0  0  0  0
 19 22  1  0  0  0  0
 19 25  1  0  0  0  0
 19 65  1  0  0  0  0
 19 66  1  0  0  0  0
 20 26  1  0  0  0  0
 20 67  1  0  0  0  0
 20 68  1  0  0  0  0
 21 27  1  0  0  0  0
 21 69  1  0  0  0  0
 21 70  1  0  0  0  0
 22 28  1  0  0  0  0
 22 71  1  0  0  0  0
 22 72  1  0  0  0  0
 23 33  1  0  0  0  0
 23 34  1  0  0  0  0
 23 73  1  0  0  0  0
 24 35  1  0  0  0  0
 24 36  1  0  0  0  0
 24 74  1  0  0  0  0
 25 37  1  0  0  0  0
 25 38  1  0  0  0  0
 25 75  1  0  0  0  0
 26 30  1  0  0  0  0
 26 76  1  0  0  0  0
 26 77  1  0  0  0  0
 27 31  1  0  0  0  0
 27 78  1  0  0  0  0
 27 79  1  0  0  0  0
 28 32  1  0  0  0  0
 28 80  1  0  0  0  0
 28 81  1  0  0  0  0
 29 45  1  0  0  0  0
 29 82  1  0  0  0  0
 29 83  1  0  0  0  0
 30 39  1  0  0  0  0
 30 84  1  0  0  0  0
 30 85  1  0  0  0  0
 31 40  1  0  0  0  0
 31 86  1  0  0  0  0
 31 87  1  0  0  0  0
 32 41  1  0  0  0  0
 32 88  1  0  0  0  0
 32 89  1  0  0  0  0
 33 90  1  0  0  0  0
 33 91  1  0  0  0  0
 33 92  1  0  0  0  0
 34 93  1  0  0  0  0
 34 94  1  0  0  0  0
 34 95  1  0  0  0  0
 35 96  1  0  0  0  0
 35 97  1  0  0  0  0
 35 98  1  0  0  0  0
 36 99  1  0  0  0  0
 36100  1  0  0  0  0
 36101  1  0  0  0  0
 37102  1  0  0  0  0
 37103  1  0  0  0  0
 37104  1  0  0  0  0
 38105  1  0  0  0  0
 38106  1  0  0  0  0
 38107  1  0  0  0  0
 39108  1  0  0  0  0
 39109  1  0  0  0  0
 40110  1  0  0  0  0
 40111  1  0  0  0  0
 41112  1  0  0  0  0
 41113  1  0  0  0  0
 42 46  1  0  0  0  0
 42114  1  0  0  0  0
 42115  1  0  0  0  0
 43 47  1  0  0  0  0
 43116  1  0  0  0  0
 43117  1  0  0  0  0
 44 48  1  0  0  0  0
 44118  1  0  0  0  0
 44119  1  0  0  0  0
 45120  1  0  0  0  0
 45121  1  0  0  0  0
 45122  1  0  0  0  0
M  END
> <PUBCHEM_COMPOUND_CID>
94370

> <PUBCHEM_COMPOUND_CANONICALIZED>
1

> <PUBCHEM_CACTVS_COMPLEXITY>
708

> <PUBCHEM_CACTVS_HBOND_ACCEPTOR>
9

> <PUBCHEM_CACTVS_HBOND_DONOR>
0

> <PUBCHEM_CACTVS_ROTATABLE_BOND>
37

> <PUBCHEM_CACTVS_SUBSKEYS>
AAADcfB8OABgAAAAAACAAAAAAAAAAAAAAAAAAAAAAAAAAAAAAAAAGgQAAAAADQCkwAKCCAAABAAIAACQCAAAAAAAAAAAAAAAAAAAAAIAAAACAAAEAAAAAAGAwOAMAAAAAAAAAAAAAAAAAAAAAAAAAAAAAA==

> <PUBCHEM_IUPAC_OPENEYE_NAME>
6-methylheptyl 2-[bis[[2-(6-methylheptoxy)-2-oxo-ethyl]sulfanyl]-octyl-stannyl]sulfanylacetate

> <PUBCHEM_IUPAC_CAS_NAME>
2-[[bis[[2-(6-methylheptoxy)-2-oxoethyl]thio]-octylstannyl]thio]acetic acid 6-methylheptyl ester

> <PUBCHEM_IUPAC_NAME_MARKUP>
6-methylheptyl 2-[bis[[2-(6-methylheptoxy)-2-oxoethyl]sulfanyl]-octylstannyl]sulfanylacetate

> <PUBCHEM_IUPAC_NAME>
6-methylheptyl 2-[bis[[2-(6-methylheptoxy)-2-oxoethyl]sulfanyl]-octylstannyl]sulfanylacetate

> <PUBCHEM_IUPAC_SYSTEMATIC_NAME>
6-methylheptyl 2-[bis[[2-(6-methylheptoxy)-2-oxidanylidene-ethyl]sulfanyl]-octyl-stannyl]sulfanylethanoate

> <PUBCHEM_IUPAC_TRADITIONAL_NAME>
2-[[bis[[2-keto-2-(6-methylheptoxy)ethyl]thio]-octyl-stannyl]thio]acetic acid 6-methylheptyl ester

> <PUBCHEM_IUPAC_INCHI>
InChI=1S/3C10H20O2S.C8H17.Sn/c3*1-9(2)6-4-3-5-7-12-10(11)8-13;1-3-5-7-8-6-4-2;/h3*9,13H,3-8H2,1-2H3;1,3-8H2,2H3;/q;;;;+3/p-3

> <PUBCHEM_IUPAC_INCHIKEY>
GNJDFZSTSXEBCH-UHFFFAOYSA-K

> <PUBCHEM_EXACT_MASS>
842.366956

> <PUBCHEM_MOLECULAR_FORMULA>
C38H74O6S3Sn

> <PUBCHEM_MOLECULAR_WEIGHT>
841.9

> <PUBCHEM_SMILES>
CCCCCCCC[Sn](SCC(=O)OCCCCCC(C)C)(SCC(=O)OCCCCCC(C)C)SCC(=O)OCCCCCC(C)C

> <PUBCHEM_OPENEYE_CAN_SMILES>
CCCCCCCC[Sn](SCC(=O)OCCCCCC(C)C)(SCC(=O)OCCCCCC(C)C)SCC(=O)OCCCCCC(C)C

> <PUBCHEM_OPENEYE_ISO_SMILES>
CCCCCCCC[Sn](SCC(=O)OCCCCCC(C)C)(SCC(=O)OCCCCCC(C)C)SCC(=O)OCCCCCC(C)C

> <PUBCHEM_CACTVS_TPSA>
155

> <PUBCHEM_MONOISOTOPIC_WEIGHT>
842.366956

> <PUBCHEM_TOTAL_CHARGE>
0

> <PUBCHEM_HEAVY_ATOM_COUNT>
48

> <PUBCHEM_ATOM_DEF_STEREO_COUNT>
0

> <PUBCHEM_ATOM_UDEF_STEREO_COUNT>
0

> <PUBCHEM_BOND_DEF_STEREO_COUNT>
0

> <PUBCHEM_BOND_UDEF_STEREO_COUNT>
0

> <PUBCHEM_ISOTOPIC_ATOM_COUNT>
0

> <PUBCHEM_COMPONENT_COUNT>
1

> <PUBCHEM_CACTVS_TAUTO_COUNT>
-1

> <PUBCHEM_COORDINATE_TYPE>
1
5
255

$$$$
