94580
  -OEChem-04042505592D

101100  0     1  0  0  0  0  0999 V2000
   10.6603   -3.5801    0.0000 Sn  0  0  0  0  0  0  0  0  0  0  0  0
   11.5263   -3.0801    0.0000 S   0  0  0  0  0  0  0  0  0  0  0  0
    9.7942   -4.0801    0.0000 S   0  0  0  0  0  0  0  0  0  0  0  0
   10.1603   -2.7141    0.0000 S   0  0  0  0  0  0  0  0  0  0  0  0
   14.1244   -3.5801    0.0000 O   0  0  0  0  0  0  0  0  0  0  0  0
    7.1962   -3.5801    0.0000 O   0  0  0  0  0  0  0  0  0  0  0  0
   10.6603   -0.1160    0.0000 O   0  0  0  0  0  0  0  0  0  0  0  0
   13.2583   -2.0801    0.0000 O   0  0  0  0  0  0  0  0  0  0  0  0
    8.0622   -5.0801    0.0000 O   0  0  0  0  0  0  0  0  0  0  0  0
    9.1602   -0.9821    0.0000 O   0  0  0  0  0  0  0  0  0  0  0  0
   15.8564   -3.5801    0.0000 C   0  0  3  0  0  0  0  0  0  0  0  0
    5.4641   -3.5801    0.0000 C   0  0  3  0  0  0  0  0  0  0  0  0
   10.6603    1.6160    0.0000 C   0  0  3  0  0  0  0  0  0  0  0  0
   16.7224   -3.0801    0.0000 C   0  0  0  0  0  0  0  0  0  0  0  0
    4.5981   -4.0801    0.0000 C   0  0  0  0  0  0  0  0  0  0  0  0
   10.1603    2.4820    0.0000 C   0  0  0  0  0  0  0  0  0  0  0  0
   15.8564   -4.5801    0.0000 C   0  0  0  0  0  0  0  0  0  0  0  0
    5.4641   -2.5801    0.0000 C   0  0  0  0  0  0  0  0  0  0  0  0
   11.6603    1.6160    0.0000 C   0  0  0  0  0  0  0  0  0  0  0  0
   17.5885   -3.5801    0.0000 C   0  0  0  0  0  0  0  0  0  0  0  0
    3.7320   -3.5801    0.0000 C   0  0  0  0  0  0  0  0  0  0  0  0
   10.6603    3.3481    0.0000 C   0  0  0  0  0  0  0  0  0  0  0  0
   14.9904   -3.0801    0.0000 C   0  0  0  0  0  0  0  0  0  0  0  0
    6.3301   -4.0801    0.0000 C   0  0  0  0  0  0  0  0  0  0  0  0
   10.1603    0.7500    0.0000 C   0  0  0  0  0  0  0  0  0  0  0  0
   18.4545   -3.0801    0.0000 C   0  0  0  0  0  0  0  0  0  0  0  0
    2.8660   -4.0801    0.0000 C   0  0  0  0  0  0  0  0  0  0  0  0
   10.1603    4.2141    0.0000 C   0  0  0  0  0  0  0  0  0  0  0  0
   16.7224   -5.0801    0.0000 C   0  0  0  0  0  0  0  0  0  0  0  0
    4.5981   -2.0801    0.0000 C   0  0  0  0  0  0  0  0  0  0  0  0
   12.1603    2.4820    0.0000 C   0  0  0  0  0  0  0  0  0  0  0  0
   19.3205   -3.5801    0.0000 C   0  0  0  0  0  0  0  0  0  0  0  0
    2.0000   -3.5801    0.0000 C   0  0  0  0  0  0  0  0  0  0  0  0
   10.6603    5.0801    0.0000 C   0  0  0  0  0  0  0  0  0  0  0  0
   13.2583   -3.0801    0.0000 C   0  0  0  0  0  0  0  0  0  0  0  0
    8.0622   -4.0801    0.0000 C   0  0  0  0  0  0  0  0  0  0  0  0
   10.1603   -0.9821    0.0000 C   0  0  0  0  0  0  0  0  0  0  0  0
   12.3923   -3.5801    0.0000 C   0  0  0  0  0  0  0  0  0  0  0  0
    8.9282   -3.5801    0.0000 C   0  0  0  0  0  0  0  0  0  0  0  0
   10.6603   -1.8481    0.0000 C   0  0  0  0  0  0  0  0  0  0  0  0
   11.1603   -4.4462    0.0000 C   0  0  0  0  0  0  0  0  0  0  0  0
   16.3933   -3.8901    0.0000 H   0  0  0  0  0  0  0  0  0  0  0  0
    6.0010   -3.2701    0.0000 H   0  0  0  0  0  0  0  0  0  0  0  0
   10.0403    1.6160    0.0000 H   0  0  0  0  0  0  0  0  0  0  0  0
   17.1210   -2.6052    0.0000 H   0  0  0  0  0  0  0  0  0  0  0  0
   16.3239   -2.6052    0.0000 H   0  0  0  0  0  0  0  0  0  0  0  0
    4.1996   -4.5551    0.0000 H   0  0  0  0  0  0  0  0  0  0  0  0
    4.9966   -4.5551    0.0000 H   0  0  0  0  0  0  0  0  0  0  0  0
    9.6853    2.8806    0.0000 H   0  0  0  0  0  0  0  0  0  0  0  0
    9.6853    2.0835    0.0000 H   0  0  0  0  0  0  0  0  0  0  0  0
   15.2458   -4.4725    0.0000 H   0  0  0  0  0  0  0  0  0  0  0  0
   15.6444   -5.1627    0.0000 H   0  0  0  0  0  0  0  0  0  0  0  0
    6.0747   -2.6878    0.0000 H   0  0  0  0  0  0  0  0  0  0  0  0
    5.6762   -1.9975    0.0000 H   0  0  0  0  0  0  0  0  0  0  0  0
   11.5526    1.0054    0.0000 H   0  0  0  0  0  0  0  0  0  0  0  0
   12.2429    1.4040    0.0000 H   0  0  0  0  0  0  0  0  0  0  0  0
   17.1899   -4.0551    0.0000 H   0  0  0  0  0  0  0  0  0  0  0  0
   17.9870   -4.0551    0.0000 H   0  0  0  0  0  0  0  0  0  0  0  0
    4.1306   -3.1052    0.0000 H   0  0  0  0  0  0  0  0  0  0  0  0
    3.3335   -3.1052    0.0000 H   0  0  0  0  0  0  0  0  0  0  0  0
   11.1352    2.9496    0.0000 H   0  0  0  0  0  0  0  0  0  0  0  0
   11.1352    3.7466    0.0000 H   0  0  0  0  0  0  0  0  0  0  0  0
   15.3889   -2.6052    0.0000 H   0  0  0  0  0  0  0  0  0  0  0  0
   14.5919   -2.6052    0.0000 H   0  0  0  0  0  0  0  0  0  0  0  0
    5.9316   -4.5551    0.0000 H   0  0  0  0  0  0  0  0  0  0  0  0
    6.7287   -4.5551    0.0000 H   0  0  0  0  0  0  0  0  0  0  0  0
    9.6853    1.1485    0.0000 H   0  0  0  0  0  0  0  0  0  0  0  0
    9.6853    0.3515    0.0000 H   0  0  0  0  0  0  0  0  0  0  0  0
   18.8530   -2.6052    0.0000 H   0  0  0  0  0  0  0  0  0  0  0  0
   18.0560   -2.6052    0.0000 H   0  0  0  0  0  0  0  0  0  0  0  0
    2.4675   -4.5551    0.0000 H   0  0  0  0  0  0  0  0  0  0  0  0
    3.2646   -4.5551    0.0000 H   0  0  0  0  0  0  0  0  0  0  0  0
    9.6853    4.6126    0.0000 H   0  0  0  0  0  0  0  0  0  0  0  0
    9.6853    3.8156    0.0000 H   0  0  0  0  0  0  0  0  0  0  0  0
   16.4124   -5.6171    0.0000 H   0  0  0  0  0  0  0  0  0  0  0  0
   17.2594   -5.3901    0.0000 H   0  0  0  0  0  0  0  0  0  0  0  0
   17.0324   -4.5432    0.0000 H   0  0  0  0  0  0  0  0  0  0  0  0
    4.9081   -1.5432    0.0000 H   0  0  0  0  0  0  0  0  0  0  0  0
    4.0611   -1.7701    0.0000 H   0  0  0  0  0  0  0  0  0  0  0  0
    4.2881   -2.6171    0.0000 H   0  0  0  0  0  0  0  0  0  0  0  0
   12.6972    2.1720    0.0000 H   0  0  0  0  0  0  0  0  0  0  0  0
   12.4703    3.0190    0.0000 H   0  0  0  0  0  0  0  0  0  0  0  0
   11.6233    2.7920    0.0000 H   0  0  0  0  0  0  0  0  0  0  0  0
   19.0105   -4.1171    0.0000 H   0  0  0  0  0  0  0  0  0  0  0  0
   19.8574   -3.8901    0.0000 H   0  0  0  0  0  0  0  0  0  0  0  0
   19.6305   -3.0432    0.0000 H   0  0  0  0  0  0  0  0  0  0  0  0
    2.3100   -3.0432    0.0000 H   0  0  0  0  0  0  0  0  0  0  0  0
    1.4631   -3.2701    0.0000 H   0  0  0  0  0  0  0  0  0  0  0  0
    1.6900   -4.1171    0.0000 H   0  0  0  0  0  0  0  0  0  0  0  0
   11.1972    4.7701    0.0000 H   0  0  0  0  0  0  0  0  0  0  0  0
   10.9703    5.6171    0.0000 H   0  0  0  0  0  0  0  0  0  0  0  0
   10.1233    5.3901    0.0000 H   0  0  0  0  0  0  0  0  0  0  0  0
   11.9938   -4.0551    0.0000 H   0  0  0  0  0  0  0  0  0  0  0  0
   12.7908   -4.0551    0.0000 H   0  0  0  0  0  0  0  0  0  0  0  0
    9.3267   -3.1052    0.0000 H   0  0  0  0  0  0  0  0  0  0  0  0
    8.5297   -3.1052    0.0000 H   0  0  0  0  0  0  0  0  0  0  0  0
   11.1352   -2.2466    0.0000 H   0  0  0  0  0  0  0  0  0  0  0  0
   11.1352   -1.4495    0.0000 H   0  0  0  0  0  0  0  0  0  0  0  0
   10.6233   -4.7562    0.0000 H   0  0  0  0  0  0  0  0  0  0  0  0
   11.4703   -4.9831    0.0000 H   0  0  0  0  0  0  0  0  0  0  0  0
   11.6972   -4.1362    0.0000 H   0  0  0  0  0  0  0  0  0  0  0  0
  1  2  1  0  0  0  0
  1  3  1  0  0  0  0
  1  4  1  0  0  0  0
  1 41  1  0  0  0  0
  2 38  1  0  0  0  0
  3 39  1  0  0  0  0
  4 40  1  0  0  0  0
  5 23  1  0  0  0  0
  5 35  1  0  0  0  0
  6 24  1  0  0  0  0
  6 36  1  0  0  0  0
  7 25  1  0  0  0  0
  7 37  1  0  0  0  0
  8 35  2  0  0  0  0
  9 36  2  0  0  0  0
 10 37  2  0  0  0  0
 11 14  1  0  0  0  0
 11 17  1  0  0  0  0
 11 23  1  0  0  0  0
 11 42  1  0  0  0  0
 12 15  1  0  0  0  0
 12 18  1  0  0  0  0
 12 24  1  0  0  0  0
 12 43  1  0  0  0  0
 13 16  1  0  0  0  0
 13 19  1  0  0  0  0
 13 25  1  0  0  0  0
 13 44  1  0  0  0  0
 14 20  1  0  0  0  0
 14 45  1  0  0  0  0
 14 46  1  0  0  0  0
 15 21  1  0  0  0  0
 15 47  1  0  0  0  0
 15 48  1  0  0  0  0
 16 22  1  0  0  0  0
 16 49  1  0  0  0  0
 16 50  1  0  0  0  0
 17 29  1  0  0  0  0
 17 51  1  0  0  0  0
 17 52  1  0  0  0  0
 18 30  1  0  0  0  0
 18 53  1  0  0  0  0
 18 54  1  0  0  0  0
 19 31  1  0  0  0  0
 19 55  1  0  0  0  0
 19 56  1  0  0  0  0
 20 26  1  0  0  0  0
 20 57  1  0  0  0  0
 20 58  1  0  0  0  0
 21 27  1  0  0  0  0
 21 59  1  0  0  0  0
 21 60  1  0  0  0  0
 22 28  1  0  0  0  0
 22 61  1  0  0  0  0
 22 62  1  0  0  0  0
 23 63  1  0  0  0  0
 23 64  1  0  0  0  0
 24 65  1  0  0  0  0
 24 66  1  0  0  0  0
 25 67  1  0  0  0  0
 25 68  1  0  0  0  0
 26 32  1  0  0  0  0
 26 69  1  0  0  0  0
 26 70  1  0  0  0  0
 27 33  1  0  0  0  0
 27 71  1  0  0  0  0
 27 72  1  0  0  0  0
 28 34  1  0  0  0  0
 28 73  1  0  0  0  0
 28 74  1  0  0  0  0
 29 75  1  0  0  0  0
 29 76  1  0  0  0  0
 29 77  1  0  0  0  0
 30 78  1  0  0  0  0
 30 79  1  0  0  0  0
 30 80  1  0  0  0  0
 31 81  1  0  0  0  0
 31 82  1  0  0  0  0
 31 83  1  0  0  0  0
 32 84  1  0  0  0  0
 32 85  1  0  0  0  0
 32 86  1  0  0  0  0
 33 87  1  0  0  0  0
 33 88  1  0  0  0  0
 33 89  1  0  0  0  0
 34 90  1  0  0  0  0
 34 91  1  0  0  0  0
 34 92  1  0  0  0  0
 35 38  1  0  0  0  0
 36 39  1  0  0  0  0
 37 40  1  0  0  0  0
 38 93  1  0  0  0  0
 38 94  1  0  0  0  0
 39 95  1  0  0  0  0
 39 96  1  0  0  0  0
 40 97  1  0  0  0  0
 40 98  1  0  0  0  0
 41 99  1  0  0  0  0
 41100  1  0  0  0  0
 41101  1  0  0  0  0
M  END
> <PUBCHEM_COMPOUND_CID>
94580

> <PUBCHEM_COMPOUND_CANONICALIZED>
1

> <PUBCHEM_CACTVS_COMPLEXITY>
608

> <PUBCHEM_CACTVS_HBOND_ACCEPTOR>
9

> <PUBCHEM_CACTVS_HBOND_DONOR>
0

> <PUBCHEM_CACTVS_ROTATABLE_BOND>
30

> <PUBCHEM_CACTVS_SUBSKEYS>
AAADcfB4OABgAAAAAACAAAAAAAAAAAAAAAAAAAAAAAAAAAAAAAAAGgQAAAAADQCkwAKCCAAABAAIAACQCAAAAAAAAAAAAAAAAAAAAAIAAAACAAAEAAAAAAGAwAAOAAAAAAAAAAAAAAAAAAAAAAAAAAAAAA==

> <PUBCHEM_IUPAC_OPENEYE_NAME>
2-ethylhexyl 2-[bis[[2-(2-ethylhexoxy)-2-oxo-ethyl]sulfanyl]-methyl-stannyl]sulfanylacetate

> <PUBCHEM_IUPAC_CAS_NAME>
2-[[bis[[2-(2-ethylhexoxy)-2-oxoethyl]thio]-methylstannyl]thio]acetic acid 2-ethylhexyl ester

> <PUBCHEM_IUPAC_NAME_MARKUP>
2-ethylhexyl 2-[bis[[2-(2-ethylhexoxy)-2-oxoethyl]sulfanyl]-methylstannyl]sulfanylacetate

> <PUBCHEM_IUPAC_NAME>
2-ethylhexyl 2-[bis[[2-(2-ethylhexoxy)-2-oxoethyl]sulfanyl]-methylstannyl]sulfanylacetate

> <PUBCHEM_IUPAC_SYSTEMATIC_NAME>
2-ethylhexyl 2-[bis[[2-(2-ethylhexoxy)-2-oxidanylidene-ethyl]sulfanyl]-methyl-stannyl]sulfanylethanoate

> <PUBCHEM_IUPAC_TRADITIONAL_NAME>
2-[[bis[[2-(2-ethylhexoxy)-2-keto-ethyl]thio]-methyl-stannyl]thio]acetic acid 2-ethylhexyl ester

> <PUBCHEM_IUPAC_INCHI>
InChI=1S/3C10H20O2S.CH3.Sn/c3*1-3-5-6-9(4-2)7-12-10(11)8-13;;/h3*9,13H,3-8H2,1-2H3;1H3;/q;;;;+3/p-3

> <PUBCHEM_IUPAC_INCHIKEY>
ACRNSUGLVQJCOM-UHFFFAOYSA-K

> <PUBCHEM_EXACT_MASS>
744.257406

> <PUBCHEM_MOLECULAR_FORMULA>
C31H60O6S3Sn

> <PUBCHEM_MOLECULAR_WEIGHT>
743.7

> <PUBCHEM_SMILES>
CCCCC(CC)COC(=O)CS[Sn](C)(SCC(=O)OCC(CC)CCCC)SCC(=O)OCC(CC)CCCC

> <PUBCHEM_OPENEYE_CAN_SMILES>
CCCCC(CC)COC(=O)CS[Sn](C)(SCC(=O)OCC(CC)CCCC)SCC(=O)OCC(CC)CCCC

> <PUBCHEM_OPENEYE_ISO_SMILES>
CCCCC(CC)COC(=O)CS[Sn](C)(SCC(=O)OCC(CC)CCCC)SCC(=O)OCC(CC)CCCC

> <PUBCHEM_CACTVS_TPSA>
155

> <PUBCHEM_MONOISOTOPIC_WEIGHT>
744.257406

> <PUBCHEM_TOTAL_CHARGE>
0

> <PUBCHEM_HEAVY_ATOM_COUNT>
41

> <PUBCHEM_ATOM_DEF_STEREO_COUNT>
0

> <PUBCHEM_ATOM_UDEF_STEREO_COUNT>
3

> <PUBCHEM_BOND_DEF_STEREO_COUNT>
0

> <PUBCHEM_BOND_UDEF_STEREO_COUNT>
0

> <PUBCHEM_ISOTOPIC_ATOM_COUNT>
0

> <PUBCHEM_COMPONENT_COUNT>
1

> <PUBCHEM_CACTVS_TAUTO_COUNT>
-1

> <PUBCHEM_COORDINATE_TYPE>
1
5
255

> <PUBCHEM_BONDANNOTATIONS>
11  17  3
12  18  3
13  19  3

$$$$
