95283
  -OEChem-04042512242D

 50 49  0     0  0  0  0  0  0999 V2000
   10.3312   -1.2500    0.0000 O   0  0  0  0  0  0  0  0  0  0  0  0
    6.0010    1.2500    0.0000 O   0  0  0  0  0  0  0  0  0  0  0  0
   13.7953   -0.2500    0.0000 O   0  0  0  0  0  0  0  0  0  0  0  0
   12.0632    2.7500    0.0000 O   0  0  0  0  0  0  0  0  0  0  0  0
    2.5369    0.2500    0.0000 O   0  0  0  0  0  0  0  0  0  0  0  0
    4.2690   -2.7500    0.0000 O   0  0  0  0  0  0  0  0  0  0  0  0
   11.1972    0.2500    0.0000 N   0  0  0  0  0  0  0  0  0  0  0  0
    5.1350   -0.2500    0.0000 N   0  0  0  0  0  0  0  0  0  0  0  0
    8.5991   -0.2500    0.0000 C   0  0  0  0  0  0  0  0  0  0  0  0
    7.7331    0.2500    0.0000 C   0  0  0  0  0  0  0  0  0  0  0  0
    9.4651    0.2500    0.0000 C   0  0  0  0  0  0  0  0  0  0  0  0
    6.8671   -0.2500    0.0000 C   0  0  0  0  0  0  0  0  0  0  0  0
   10.3312   -0.2500    0.0000 C   0  0  0  0  0  0  0  0  0  0  0  0
    6.0010    0.2500    0.0000 C   0  0  0  0  0  0  0  0  0  0  0  0
   12.0632   -0.2500    0.0000 C   0  0  0  0  0  0  0  0  0  0  0  0
   11.1972    1.2500    0.0000 C   0  0  0  0  0  0  0  0  0  0  0  0
    4.2690    0.2500    0.0000 C   0  0  0  0  0  0  0  0  0  0  0  0
    5.1350   -1.2500    0.0000 C   0  0  0  0  0  0  0  0  0  0  0  0
   12.9292    0.2500    0.0000 C   0  0  0  0  0  0  0  0  0  0  0  0
   12.0632    1.7500    0.0000 C   0  0  0  0  0  0  0  0  0  0  0  0
    3.4030   -0.2500    0.0000 C   0  0  0  0  0  0  0  0  0  0  0  0
    4.2690   -1.7500    0.0000 C   0  0  0  0  0  0  0  0  0  0  0  0
    8.2006   -0.7249    0.0000 H   0  0  0  0  0  0  0  0  0  0  0  0
    8.9976   -0.7249    0.0000 H   0  0  0  0  0  0  0  0  0  0  0  0
    8.1316    0.7249    0.0000 H   0  0  0  0  0  0  0  0  0  0  0  0
    7.3346    0.7249    0.0000 H   0  0  0  0  0  0  0  0  0  0  0  0
    9.8637    0.7249    0.0000 H   0  0  0  0  0  0  0  0  0  0  0  0
    9.0666    0.7249    0.0000 H   0  0  0  0  0  0  0  0  0  0  0  0
    6.4685   -0.7249    0.0000 H   0  0  0  0  0  0  0  0  0  0  0  0
    7.2656   -0.7249    0.0000 H   0  0  0  0  0  0  0  0  0  0  0  0
   11.6647   -0.7249    0.0000 H   0  0  0  0  0  0  0  0  0  0  0  0
   12.4617   -0.7249    0.0000 H   0  0  0  0  0  0  0  0  0  0  0  0
   10.9851    1.8326    0.0000 H   0  0  0  0  0  0  0  0  0  0  0  0
   10.5866    1.1423    0.0000 H   0  0  0  0  0  0  0  0  0  0  0  0
    4.6675    0.7249    0.0000 H   0  0  0  0  0  0  0  0  0  0  0  0
    3.8705    0.7249    0.0000 H   0  0  0  0  0  0  0  0  0  0  0  0
    5.3471   -1.8326    0.0000 H   0  0  0  0  0  0  0  0  0  0  0  0
    5.7456   -1.1423    0.0000 H   0  0  0  0  0  0  0  0  0  0  0  0
   13.3278    0.7249    0.0000 H   0  0  0  0  0  0  0  0  0  0  0  0
   12.5307    0.7249    0.0000 H   0  0  0  0  0  0  0  0  0  0  0  0
   12.2753    1.1674    0.0000 H   0  0  0  0  0  0  0  0  0  0  0  0
   12.6738    1.8577    0.0000 H   0  0  0  0  0  0  0  0  0  0  0  0
    3.0044   -0.7249    0.0000 H   0  0  0  0  0  0  0  0  0  0  0  0
    3.8015   -0.7249    0.0000 H   0  0  0  0  0  0  0  0  0  0  0  0
    4.0569   -1.1674    0.0000 H   0  0  0  0  0  0  0  0  0  0  0  0
    3.6584   -1.8577    0.0000 H   0  0  0  0  0  0  0  0  0  0  0  0
   14.3322    0.0600    0.0000 H   0  0  0  0  0  0  0  0  0  0  0  0
   12.6002    3.0600    0.0000 H   0  0  0  0  0  0  0  0  0  0  0  0
    2.0000   -0.0600    0.0000 H   0  0  0  0  0  0  0  0  0  0  0  0
    3.7320   -3.0600    0.0000 H   0  0  0  0  0  0  0  0  0  0  0  0
  1 13  2  0  0  0  0
  2 14  2  0  0  0  0
  3 19  1  0  0  0  0
  3 47  1  0  0  0  0
  4 20  1  0  0  0  0
  4 48  1  0  0  0  0
  5 21  1  0  0  0  0
  5 49  1  0  0  0  0
  6 22  1  0  0  0  0
  6 50  1  0  0  0  0
  7 13  1  0  0  0  0
  7 15  1  0  0  0  0
  7 16  1  0  0  0  0
  8 14  1  0  0  0  0
  8 17  1  0  0  0  0
  8 18  1  0  0  0  0
  9 10  1  0  0  0  0
  9 11  1  0  0  0  0
  9 23  1  0  0  0  0
  9 24  1  0  0  0  0
 10 12  1  0  0  0  0
 10 25  1  0  0  0  0
 10 26  1  0  0  0  0
 11 13  1  0  0  0  0
 11 27  1  0  0  0  0
 11 28  1  0  0  0  0
 12 14  1  0  0  0  0
 12 29  1  0  0  0  0
 12 30  1  0  0  0  0
 15 19  1  0  0  0  0
 15 31  1  0  0  0  0
 15 32  1  0  0  0  0
 16 20  1  0  0  0  0
 16 33  1  0  0  0  0
 16 34  1  0  0  0  0
 17 21  1  0  0  0  0
 17 35  1  0  0  0  0
 17 36  1  0  0  0  0
 18 22  1  0  0  0  0
 18 37  1  0  0  0  0
 18 38  1  0  0  0  0
 19 39  1  0  0  0  0
 19 40  1  0  0  0  0
 20 41  1  0  0  0  0
 20 42  1  0  0  0  0
 21 43  1  0  0  0  0
 21 44  1  0  0  0  0
 22 45  1  0  0  0  0
 22 46  1  0  0  0  0
M  END
> <PUBCHEM_COMPOUND_CID>
95283

> <PUBCHEM_COMPOUND_CANONICALIZED>
1

> <PUBCHEM_CACTVS_COMPLEXITY>
272

> <PUBCHEM_CACTVS_HBOND_ACCEPTOR>
6

> <PUBCHEM_CACTVS_HBOND_DONOR>
4

> <PUBCHEM_CACTVS_ROTATABLE_BOND>
13

> <PUBCHEM_CACTVS_SUBSKEYS>
AAADceBzOAAAAAAAAAAAAAAAAAAAAAAAAAAAAAAAAAAAAAAAAAAAHgAACAAACADhgAYAAAMAAgAIAAEQEAAAAAAAAAAAAAEIAAACEBIAgAAEAAAABgCQAAEYCAAAAAAAAAAAAAAAAAAAAAAAAAAAAAAAAA==

> <PUBCHEM_IUPAC_OPENEYE_NAME>
N,N,N',N'-tetrakis(2-hydroxyethyl)hexanediamide

> <PUBCHEM_IUPAC_CAS_NAME>
N,N,N',N'-tetrakis(2-hydroxyethyl)hexanediamide

> <PUBCHEM_IUPAC_NAME_MARKUP>
<I>N</I>,<I>N</I>,<I>N</I>&apos;,<I>N</I>&apos;-tetrakis(2-hydroxyethyl)hexanediamide

> <PUBCHEM_IUPAC_NAME>
N,N,N',N'-tetrakis(2-hydroxyethyl)hexanediamide

> <PUBCHEM_IUPAC_SYSTEMATIC_NAME>
N,N,N',N'-tetrakis(2-hydroxyethyl)hexanediamide

> <PUBCHEM_IUPAC_TRADITIONAL_NAME>
N,N,N',N'-tetrakis(2-hydroxyethyl)adipamide

> <PUBCHEM_IUPAC_INCHI>
InChI=1S/C14H28N2O6/c17-9-5-15(6-10-18)13(21)3-1-2-4-14(22)16(7-11-19)8-12-20/h17-20H,1-12H2

> <PUBCHEM_IUPAC_INCHIKEY>
OKRNLSUTBJUVKA-UHFFFAOYSA-N

> <PUBCHEM_XLOGP3_AA>
-2.9

> <PUBCHEM_EXACT_MASS>
320.19473662

> <PUBCHEM_MOLECULAR_FORMULA>
C14H28N2O6

> <PUBCHEM_MOLECULAR_WEIGHT>
320.38

> <PUBCHEM_SMILES>
C(CCC(=O)N(CCO)CCO)CC(=O)N(CCO)CCO

> <PUBCHEM_OPENEYE_CAN_SMILES>
C(CCC(=O)N(CCO)CCO)CC(=O)N(CCO)CCO

> <PUBCHEM_OPENEYE_ISO_SMILES>
C(CCC(=O)N(CCO)CCO)CC(=O)N(CCO)CCO

> <PUBCHEM_CACTVS_TPSA>
122

> <PUBCHEM_MONOISOTOPIC_WEIGHT>
320.19473662

> <PUBCHEM_TOTAL_CHARGE>
0

> <PUBCHEM_HEAVY_ATOM_COUNT>
22

> <PUBCHEM_ATOM_DEF_STEREO_COUNT>
0

> <PUBCHEM_ATOM_UDEF_STEREO_COUNT>
0

> <PUBCHEM_BOND_DEF_STEREO_COUNT>
0

> <PUBCHEM_BOND_UDEF_STEREO_COUNT>
0

> <PUBCHEM_ISOTOPIC_ATOM_COUNT>
0

> <PUBCHEM_COMPONENT_COUNT>
1

> <PUBCHEM_CACTVS_TAUTO_COUNT>
-1

> <PUBCHEM_COORDINATE_TYPE>
1
5
255

$$$$
