9576130
  -OEChem-04042505492D

 73 72  0     1  0  0  0  0  0999 V2000
   10.6603    0.0000    0.0000 Sn  0  0  0  0  0  0  0  0  0  0  0  0
   11.5263    0.5000    0.0000 S   0  0  0  0  0  0  0  0  0  0  0  0
    9.7942   -0.5000    0.0000 S   0  0  0  0  0  0  0  0  0  0  0  0
   14.1244    0.0000    0.0000 O   0  0  0  0  0  0  0  0  0  0  0  0
    7.1962    0.0000    0.0000 O   0  0  0  0  0  0  0  0  0  0  0  0
   13.2583    1.5000    0.0000 O   0  0  0  0  0  0  0  0  0  0  0  0
    8.0622   -1.5000    0.0000 O   0  0  0  0  0  0  0  0  0  0  0  0
   15.8564   -0.0000    0.0000 C   0  0  3  0  0  0  0  0  0  0  0  0
    5.4641    0.0000    0.0000 C   0  0  3  0  0  0  0  0  0  0  0  0
   16.7224    0.5000    0.0000 C   0  0  0  0  0  0  0  0  0  0  0  0
    4.5981   -0.5000    0.0000 C   0  0  0  0  0  0  0  0  0  0  0  0
   15.8564   -1.0000    0.0000 C   0  0  0  0  0  0  0  0  0  0  0  0
    5.4641    1.0000    0.0000 C   0  0  0  0  0  0  0  0  0  0  0  0
   17.5885   -0.0000    0.0000 C   0  0  0  0  0  0  0  0  0  0  0  0
    3.7320   -0.0000    0.0000 C   0  0  0  0  0  0  0  0  0  0  0  0
   14.9904    0.5000    0.0000 C   0  0  0  0  0  0  0  0  0  0  0  0
    6.3301   -0.5000    0.0000 C   0  0  0  0  0  0  0  0  0  0  0  0
   18.4545    0.5000    0.0000 C   0  0  0  0  0  0  0  0  0  0  0  0
    2.8660   -0.5000    0.0000 C   0  0  0  0  0  0  0  0  0  0  0  0
   16.7224   -1.5000    0.0000 C   0  0  0  0  0  0  0  0  0  0  0  0
    4.5981    1.5000    0.0000 C   0  0  0  0  0  0  0  0  0  0  0  0
   19.3205   -0.0000    0.0000 C   0  0  0  0  0  0  0  0  0  0  0  0
    2.0000   -0.0000    0.0000 C   0  0  0  0  0  0  0  0  0  0  0  0
   13.2583    0.5000    0.0000 C   0  0  0  0  0  0  0  0  0  0  0  0
    8.0622   -0.5000    0.0000 C   0  0  0  0  0  0  0  0  0  0  0  0
   12.3923    0.0000    0.0000 C   0  0  0  0  0  0  0  0  0  0  0  0
    8.9282    0.0000    0.0000 C   0  0  0  0  0  0  0  0  0  0  0  0
   10.1603    0.8660    0.0000 C   0  0  0  0  0  0  0  0  0  0  0  0
   11.1603   -0.8660    0.0000 C   0  0  0  0  0  0  0  0  0  0  0  0
   16.3933   -0.3100    0.0000 H   0  0  0  0  0  0  0  0  0  0  0  0
    5.4641   -0.6200    0.0000 H   0  0  0  0  0  0  0  0  0  0  0  0
   17.1210    0.9749    0.0000 H   0  0  0  0  0  0  0  0  0  0  0  0
   16.3239    0.9749    0.0000 H   0  0  0  0  0  0  0  0  0  0  0  0
    4.1996   -0.9749    0.0000 H   0  0  0  0  0  0  0  0  0  0  0  0
    4.9966   -0.9749    0.0000 H   0  0  0  0  0  0  0  0  0  0  0  0
   15.2458   -0.8923    0.0000 H   0  0  0  0  0  0  0  0  0  0  0  0
   15.6444   -1.5826    0.0000 H   0  0  0  0  0  0  0  0  0  0  0  0
    6.0747    0.8923    0.0000 H   0  0  0  0  0  0  0  0  0  0  0  0
    5.6762    1.5826    0.0000 H   0  0  0  0  0  0  0  0  0  0  0  0
   17.1899   -0.4749    0.0000 H   0  0  0  0  0  0  0  0  0  0  0  0
   17.9870   -0.4749    0.0000 H   0  0  0  0  0  0  0  0  0  0  0  0
    4.1306    0.4749    0.0000 H   0  0  0  0  0  0  0  0  0  0  0  0
    3.3335    0.4749    0.0000 H   0  0  0  0  0  0  0  0  0  0  0  0
   15.3889    0.9749    0.0000 H   0  0  0  0  0  0  0  0  0  0  0  0
   14.5919    0.9749    0.0000 H   0  0  0  0  0  0  0  0  0  0  0  0
    5.9316   -0.9749    0.0000 H   0  0  0  0  0  0  0  0  0  0  0  0
    6.7287   -0.9749    0.0000 H   0  0  0  0  0  0  0  0  0  0  0  0
   18.8530    0.9749    0.0000 H   0  0  0  0  0  0  0  0  0  0  0  0
   18.0560    0.9749    0.0000 H   0  0  0  0  0  0  0  0  0  0  0  0
    2.4675   -0.9749    0.0000 H   0  0  0  0  0  0  0  0  0  0  0  0
    3.2646   -0.9749    0.0000 H   0  0  0  0  0  0  0  0  0  0  0  0
   16.4124   -2.0369    0.0000 H   0  0  0  0  0  0  0  0  0  0  0  0
   17.2594   -1.8100    0.0000 H   0  0  0  0  0  0  0  0  0  0  0  0
   17.0324   -0.9631    0.0000 H   0  0  0  0  0  0  0  0  0  0  0  0
    4.9081    2.0369    0.0000 H   0  0  0  0  0  0  0  0  0  0  0  0
    4.0611    1.8100    0.0000 H   0  0  0  0  0  0  0  0  0  0  0  0
    4.2881    0.9631    0.0000 H   0  0  0  0  0  0  0  0  0  0  0  0
   19.0105   -0.5369    0.0000 H   0  0  0  0  0  0  0  0  0  0  0  0
   19.8574   -0.3100    0.0000 H   0  0  0  0  0  0  0  0  0  0  0  0
   19.6305    0.5369    0.0000 H   0  0  0  0  0  0  0  0  0  0  0  0
    2.3100    0.5369    0.0000 H   0  0  0  0  0  0  0  0  0  0  0  0
    1.4631    0.3100    0.0000 H   0  0  0  0  0  0  0  0  0  0  0  0
    1.6900   -0.5369    0.0000 H   0  0  0  0  0  0  0  0  0  0  0  0
   11.9938   -0.4749    0.0000 H   0  0  0  0  0  0  0  0  0  0  0  0
   12.7908   -0.4749    0.0000 H   0  0  0  0  0  0  0  0  0  0  0  0
    9.3267    0.4749    0.0000 H   0  0  0  0  0  0  0  0  0  0  0  0
    8.5297    0.4749    0.0000 H   0  0  0  0  0  0  0  0  0  0  0  0
   10.6972    1.1760    0.0000 H   0  0  0  0  0  0  0  0  0  0  0  0
    9.8503    1.4030    0.0000 H   0  0  0  0  0  0  0  0  0  0  0  0
    9.6233    0.5560    0.0000 H   0  0  0  0  0  0  0  0  0  0  0  0
   10.6233   -1.1760    0.0000 H   0  0  0  0  0  0  0  0  0  0  0  0
   11.4703   -1.4030    0.0000 H   0  0  0  0  0  0  0  0  0  0  0  0
   11.6972   -0.5560    0.0000 H   0  0  0  0  0  0  0  0  0  0  0  0
  1  2  1  0  0  0  0
  1  3  1  0  0  0  0
  1 28  1  0  0  0  0
  1 29  1  0  0  0  0
  2 26  1  0  0  0  0
  3 27  1  0  0  0  0
  4 16  1  0  0  0  0
  4 24  1  0  0  0  0
  5 17  1  0  0  0  0
  5 25  1  0  0  0  0
  6 24  2  0  0  0  0
  7 25  2  0  0  0  0
  8 10  1  0  0  0  0
  8 12  1  0  0  0  0
  8 16  1  0  0  0  0
  8 30  1  0  0  0  0
  9 11  1  0  0  0  0
  9 13  1  0  0  0  0
  9 17  1  0  0  0  0
  9 31  1  0  0  0  0
 10 14  1  0  0  0  0
 10 32  1  0  0  0  0
 10 33  1  0  0  0  0
 11 15  1  0  0  0  0
 11 34  1  0  0  0  0
 11 35  1  0  0  0  0
 12 20  1  0  0  0  0
 12 36  1  0  0  0  0
 12 37  1  0  0  0  0
 13 21  1  0  0  0  0
 13 38  1  0  0  0  0
 13 39  1  0  0  0  0
 14 18  1  0  0  0  0
 14 40  1  0  0  0  0
 14 41  1  0  0  0  0
 15 19  1  0  0  0  0
 15 42  1  0  0  0  0
 15 43  1  0  0  0  0
 16 44  1  0  0  0  0
 16 45  1  0  0  0  0
 17 46  1  0  0  0  0
 17 47  1  0  0  0  0
 18 22  1  0  0  0  0
 18 48  1  0  0  0  0
 18 49  1  0  0  0  0
 19 23  1  0  0  0  0
 19 50  1  0  0  0  0
 19 51  1  0  0  0  0
 20 52  1  0  0  0  0
 20 53  1  0  0  0  0
 20 54  1  0  0  0  0
 21 55  1  0  0  0  0
 21 56  1  0  0  0  0
 21 57  1  0  0  0  0
 22 58  1  0  0  0  0
 22 59  1  0  0  0  0
 22 60  1  0  0  0  0
 23 61  1  0  0  0  0
 23 62  1  0  0  0  0
 23 63  1  0  0  0  0
 24 26  1  0  0  0  0
 25 27  1  0  0  0  0
 26 64  1  0  0  0  0
 26 65  1  0  0  0  0
 27 66  1  0  0  0  0
 27 67  1  0  0  0  0
 28 68  1  0  0  0  0
 28 69  1  0  0  0  0
 28 70  1  0  0  0  0
 29 71  1  0  0  0  0
 29 72  1  0  0  0  0
 29 73  1  0  0  0  0
M  END
> <PUBCHEM_COMPOUND_CID>
9576130

> <PUBCHEM_COMPOUND_CANONICALIZED>
1

> <PUBCHEM_CACTVS_COMPLEXITY>
409

> <PUBCHEM_CACTVS_HBOND_ACCEPTOR>
6

> <PUBCHEM_CACTVS_HBOND_DONOR>
0

> <PUBCHEM_CACTVS_ROTATABLE_BOND>
20

> <PUBCHEM_CACTVS_SUBSKEYS>
AAADcfB4OABgAAAAAACAAAAAAAAAAAAAAAAAAAAAAAAAAAAAAAAAGgQAAAAADQCkwAKCCAAABAAIAACQCAAAAAAAAAAAAAAAAAAAAAIAAAACAAAEAAAAAAGAwAAOAAAAAAAAAAAAAAAAAAAAAAAAAAAAAA==

> <PUBCHEM_IUPAC_OPENEYE_NAME>
2-ethylhexyl 2-[[2-(2-ethylhexoxy)-2-oxo-ethyl]sulfanyl-dimethyl-stannyl]sulfanylacetate

> <PUBCHEM_IUPAC_CAS_NAME>
2-[[[[2-(2-ethylhexoxy)-2-oxoethyl]thio]-dimethylstannyl]thio]acetic acid 2-ethylhexyl ester

> <PUBCHEM_IUPAC_NAME_MARKUP>
2-ethylhexyl 2-[[2-(2-ethylhexoxy)-2-oxoethyl]sulfanyl-dimethylstannyl]sulfanylacetate

> <PUBCHEM_IUPAC_NAME>
2-ethylhexyl 2-[[2-(2-ethylhexoxy)-2-oxoethyl]sulfanyl-dimethylstannyl]sulfanylacetate

> <PUBCHEM_IUPAC_SYSTEMATIC_NAME>
2-ethylhexyl 2-[[2-(2-ethylhexoxy)-2-oxidanylidene-ethyl]sulfanyl-dimethyl-stannyl]sulfanylethanoate

> <PUBCHEM_IUPAC_TRADITIONAL_NAME>
2-[[[[2-(2-ethylhexoxy)-2-keto-ethyl]thio]-dimethyl-stannyl]thio]acetic acid 2-ethylhexyl ester

> <PUBCHEM_IUPAC_INCHI>
InChI=1S/2C10H20O2S.2CH3.Sn/c2*1-3-5-6-9(4-2)7-12-10(11)8-13;;;/h2*9,13H,3-8H2,1-2H3;2*1H3;/q;;;;+2/p-2

> <PUBCHEM_IUPAC_INCHIKEY>
YAHBZWSDRFSFOO-UHFFFAOYSA-L

> <PUBCHEM_EXACT_MASS>
556.170305

> <PUBCHEM_MOLECULAR_FORMULA>
C22H44O4S2Sn

> <PUBCHEM_MOLECULAR_WEIGHT>
555.4

> <PUBCHEM_SMILES>
CCCCC(CC)COC(=O)CS[Sn](C)(C)SCC(=O)OCC(CC)CCCC

> <PUBCHEM_OPENEYE_CAN_SMILES>
CCCCC(CC)COC(=O)CS[Sn](C)(C)SCC(=O)OCC(CC)CCCC

> <PUBCHEM_OPENEYE_ISO_SMILES>
CCCCC(CC)COC(=O)CS[Sn](C)(C)SCC(=O)OCC(CC)CCCC

> <PUBCHEM_CACTVS_TPSA>
103

> <PUBCHEM_MONOISOTOPIC_WEIGHT>
556.170305

> <PUBCHEM_TOTAL_CHARGE>
0

> <PUBCHEM_HEAVY_ATOM_COUNT>
29

> <PUBCHEM_ATOM_DEF_STEREO_COUNT>
0

> <PUBCHEM_ATOM_UDEF_STEREO_COUNT>
2

> <PUBCHEM_BOND_DEF_STEREO_COUNT>
0

> <PUBCHEM_BOND_UDEF_STEREO_COUNT>
0

> <PUBCHEM_ISOTOPIC_ATOM_COUNT>
0

> <PUBCHEM_COMPONENT_COUNT>
1

> <PUBCHEM_CACTVS_TAUTO_COUNT>
-1

> <PUBCHEM_COORDINATE_TYPE>
1
5
255

> <PUBCHEM_BONDANNOTATIONS>
8  12  3
9  13  3

$$$$
