9576625
  -OEChem-04042505472D

109108  0     0  0  0  0  0  0999 V2000
   11.5263    0.0000    0.0000 Sn  0  0  0  0  0  0  0  0  0  0  0  0
   12.3923    0.5000    0.0000 S   0  0  0  0  0  0  0  0  0  0  0  0
   10.6603   -0.5000    0.0000 S   0  0  0  0  0  0  0  0  0  0  0  0
   14.9904   -0.0000    0.0000 O   0  0  0  0  0  0  0  0  0  0  0  0
    8.0622   -0.0000    0.0000 O   0  0  0  0  0  0  0  0  0  0  0  0
   11.5263    3.4641    0.0000 O   0  0  0  0  0  0  0  0  0  0  0  0
   11.5263   -3.4641    0.0000 O   0  0  0  0  0  0  0  0  0  0  0  0
   10.0263    2.5981    0.0000 O   0  0  0  0  0  0  0  0  0  0  0  0
   13.0263   -2.5981    0.0000 O   0  0  0  0  0  0  0  0  0  0  0  0
   14.1244    1.5000    0.0000 O   0  0  0  0  0  0  0  0  0  0  0  0
    8.9282   -1.5000    0.0000 O   0  0  0  0  0  0  0  0  0  0  0  0
   11.0263    0.8660    0.0000 C   0  0  0  0  0  0  0  0  0  0  0  0
   12.0263   -0.8660    0.0000 C   0  0  0  0  0  0  0  0  0  0  0  0
   11.5263    1.7320    0.0000 C   0  0  0  0  0  0  0  0  0  0  0  0
   11.5263   -1.7320    0.0000 C   0  0  0  0  0  0  0  0  0  0  0  0
   19.3205    0.5000    0.0000 C   0  0  0  0  0  0  0  0  0  0  0  0
    3.7320   -0.5000    0.0000 C   0  0  0  0  0  0  0  0  0  0  0  0
   18.4545   -0.0000    0.0000 C   0  0  0  0  0  0  0  0  0  0  0  0
    4.5981   -0.0000    0.0000 C   0  0  0  0  0  0  0  0  0  0  0  0
   20.1865   -0.0000    0.0000 C   0  0  0  0  0  0  0  0  0  0  0  0
    2.8660   -0.0000    0.0000 C   0  0  0  0  0  0  0  0  0  0  0  0
   17.5885    0.5000    0.0000 C   0  0  0  0  0  0  0  0  0  0  0  0
    5.4641   -0.5000    0.0000 C   0  0  0  0  0  0  0  0  0  0  0  0
   16.7224   -0.0000    0.0000 C   0  0  0  0  0  0  0  0  0  0  0  0
    6.3301   -0.0000    0.0000 C   0  0  0  0  0  0  0  0  0  0  0  0
   13.2583    0.0000    0.0000 C   0  0  0  0  0  0  0  0  0  0  0  0
    9.7942   -0.0000    0.0000 C   0  0  0  0  0  0  0  0  0  0  0  0
   15.8564    0.5000    0.0000 C   0  0  0  0  0  0  0  0  0  0  0  0
    7.1962   -0.5000    0.0000 C   0  0  0  0  0  0  0  0  0  0  0  0
   21.0526    0.5000    0.0000 C   0  0  0  0  0  0  0  0  0  0  0  0
   20.1865   -1.0000    0.0000 C   0  0  0  0  0  0  0  0  0  0  0  0
    2.0000   -0.5000    0.0000 C   0  0  0  0  0  0  0  0  0  0  0  0
    2.8660    1.0000    0.0000 C   0  0  0  0  0  0  0  0  0  0  0  0
   11.0263    2.5981    0.0000 C   0  0  0  0  0  0  0  0  0  0  0  0
   12.0263   -2.5981    0.0000 C   0  0  0  0  0  0  0  0  0  0  0  0
   14.1244    0.5000    0.0000 C   0  0  0  0  0  0  0  0  0  0  0  0
    8.9282   -0.5000    0.0000 C   0  0  0  0  0  0  0  0  0  0  0  0
   11.0263    4.3301    0.0000 C   0  0  0  0  0  0  0  0  0  0  0  0
   12.0263   -4.3301    0.0000 C   0  0  0  0  0  0  0  0  0  0  0  0
   11.5263    5.1962    0.0000 C   0  0  0  0  0  0  0  0  0  0  0  0
   11.5263   -5.1962    0.0000 C   0  0  0  0  0  0  0  0  0  0  0  0
   11.0263    6.0622    0.0000 C   0  0  0  0  0  0  0  0  0  0  0  0
   12.0263   -6.0622    0.0000 C   0  0  0  0  0  0  0  0  0  0  0  0
   11.5263    6.9282    0.0000 C   0  0  0  0  0  0  0  0  0  0  0  0
   11.5263   -6.9282    0.0000 C   0  0  0  0  0  0  0  0  0  0  0  0
   10.5513    1.2646    0.0000 H   0  0  0  0  0  0  0  0  0  0  0  0
   10.5513    0.4675    0.0000 H   0  0  0  0  0  0  0  0  0  0  0  0
   12.5012   -1.2646    0.0000 H   0  0  0  0  0  0  0  0  0  0  0  0
   12.5012   -0.4675    0.0000 H   0  0  0  0  0  0  0  0  0  0  0  0
   12.0012    1.3335    0.0000 H   0  0  0  0  0  0  0  0  0  0  0  0
   12.0012    2.1306    0.0000 H   0  0  0  0  0  0  0  0  0  0  0  0
   11.0513   -1.3335    0.0000 H   0  0  0  0  0  0  0  0  0  0  0  0
   11.0513   -2.1306    0.0000 H   0  0  0  0  0  0  0  0  0  0  0  0
   19.7190    0.9749    0.0000 H   0  0  0  0  0  0  0  0  0  0  0  0
   18.9220    0.9749    0.0000 H   0  0  0  0  0  0  0  0  0  0  0  0
    3.3335   -0.9749    0.0000 H   0  0  0  0  0  0  0  0  0  0  0  0
    4.1306   -0.9749    0.0000 H   0  0  0  0  0  0  0  0  0  0  0  0
   18.0560   -0.4749    0.0000 H   0  0  0  0  0  0  0  0  0  0  0  0
   18.8530   -0.4749    0.0000 H   0  0  0  0  0  0  0  0  0  0  0  0
    4.9966    0.4749    0.0000 H   0  0  0  0  0  0  0  0  0  0  0  0
    4.1996    0.4749    0.0000 H   0  0  0  0  0  0  0  0  0  0  0  0
   19.6496   -0.3100    0.0000 H   0  0  0  0  0  0  0  0  0  0  0  0
    2.8660   -0.6200    0.0000 H   0  0  0  0  0  0  0  0  0  0  0  0
   17.9870    0.9749    0.0000 H   0  0  0  0  0  0  0  0  0  0  0  0
   17.1899    0.9749    0.0000 H   0  0  0  0  0  0  0  0  0  0  0  0
    5.0656   -0.9749    0.0000 H   0  0  0  0  0  0  0  0  0  0  0  0
    5.8626   -0.9749    0.0000 H   0  0  0  0  0  0  0  0  0  0  0  0
   16.3239   -0.4749    0.0000 H   0  0  0  0  0  0  0  0  0  0  0  0
   17.1210   -0.4749    0.0000 H   0  0  0  0  0  0  0  0  0  0  0  0
    6.7287    0.4749    0.0000 H   0  0  0  0  0  0  0  0  0  0  0  0
    5.9316    0.4749    0.0000 H   0  0  0  0  0  0  0  0  0  0  0  0
   12.8598   -0.4749    0.0000 H   0  0  0  0  0  0  0  0  0  0  0  0
   13.6569   -0.4749    0.0000 H   0  0  0  0  0  0  0  0  0  0  0  0
   10.1928    0.4749    0.0000 H   0  0  0  0  0  0  0  0  0  0  0  0
    9.3957    0.4749    0.0000 H   0  0  0  0  0  0  0  0  0  0  0  0
   16.2549    0.9749    0.0000 H   0  0  0  0  0  0  0  0  0  0  0  0
   15.4579    0.9749    0.0000 H   0  0  0  0  0  0  0  0  0  0  0  0
    6.7976   -0.9749    0.0000 H   0  0  0  0  0  0  0  0  0  0  0  0
    7.5947   -0.9749    0.0000 H   0  0  0  0  0  0  0  0  0  0  0  0
   21.3626   -0.0369    0.0000 H   0  0  0  0  0  0  0  0  0  0  0  0
   21.5895    0.8100    0.0000 H   0  0  0  0  0  0  0  0  0  0  0  0
   20.7426    1.0369    0.0000 H   0  0  0  0  0  0  0  0  0  0  0  0
   19.5665   -1.0000    0.0000 H   0  0  0  0  0  0  0  0  0  0  0  0
   20.1865   -1.6200    0.0000 H   0  0  0  0  0  0  0  0  0  0  0  0
   20.8065   -1.0000    0.0000 H   0  0  0  0  0  0  0  0  0  0  0  0
    1.6900    0.0369    0.0000 H   0  0  0  0  0  0  0  0  0  0  0  0
    1.4631   -0.8100    0.0000 H   0  0  0  0  0  0  0  0  0  0  0  0
    2.3100   -1.0369    0.0000 H   0  0  0  0  0  0  0  0  0  0  0  0
    3.4860    1.0000    0.0000 H   0  0  0  0  0  0  0  0  0  0  0  0
    2.8660    1.6200    0.0000 H   0  0  0  0  0  0  0  0  0  0  0  0
    2.2460    1.0000    0.0000 H   0  0  0  0  0  0  0  0  0  0  0  0
   10.5513    4.7287    0.0000 H   0  0  0  0  0  0  0  0  0  0  0  0
   10.5513    3.9316    0.0000 H   0  0  0  0  0  0  0  0  0  0  0  0
   12.5012   -4.7287    0.0000 H   0  0  0  0  0  0  0  0  0  0  0  0
   12.5012   -3.9316    0.0000 H   0  0  0  0  0  0  0  0  0  0  0  0
   12.0012    4.7976    0.0000 H   0  0  0  0  0  0  0  0  0  0  0  0
   12.0012    5.5947    0.0000 H   0  0  0  0  0  0  0  0  0  0  0  0
   11.0513   -4.7976    0.0000 H   0  0  0  0  0  0  0  0  0  0  0  0
   11.0513   -5.5947    0.0000 H   0  0  0  0  0  0  0  0  0  0  0  0
   10.5513    6.4607    0.0000 H   0  0  0  0  0  0  0  0  0  0  0  0
   10.5513    5.6636    0.0000 H   0  0  0  0  0  0  0  0  0  0  0  0
   12.5012   -6.4607    0.0000 H   0  0  0  0  0  0  0  0  0  0  0  0
   12.5012   -5.6636    0.0000 H   0  0  0  0  0  0  0  0  0  0  0  0
   12.0632    6.6182    0.0000 H   0  0  0  0  0  0  0  0  0  0  0  0
   11.8363    7.4651    0.0000 H   0  0  0  0  0  0  0  0  0  0  0  0
   10.9893    7.2382    0.0000 H   0  0  0  0  0  0  0  0  0  0  0  0
   10.9893   -6.6182    0.0000 H   0  0  0  0  0  0  0  0  0  0  0  0
   11.2163   -7.4651    0.0000 H   0  0  0  0  0  0  0  0  0  0  0  0
   12.0632   -7.2382    0.0000 H   0  0  0  0  0  0  0  0  0  0  0  0
  1  2  1  0  0  0  0
  1  3  1  0  0  0  0
  1 12  1  0  0  0  0
  1 13  1  0  0  0  0
  2 26  1  0  0  0  0
  3 27  1  0  0  0  0
  4 28  1  0  0  0  0
  4 36  1  0  0  0  0
  5 29  1  0  0  0  0
  5 37  1  0  0  0  0
  6 34  1  0  0  0  0
  6 38  1  0  0  0  0
  7 35  1  0  0  0  0
  7 39  1  0  0  0  0
  8 34  2  0  0  0  0
  9 35  2  0  0  0  0
 10 36  2  0  0  0  0
 11 37  2  0  0  0  0
 12 14  1  0  0  0  0
 12 46  1  0  0  0  0
 12 47  1  0  0  0  0
 13 15  1  0  0  0  0
 13 48  1  0  0  0  0
 13 49  1  0  0  0  0
 14 34  1  0  0  0  0
 14 50  1  0  0  0  0
 14 51  1  0  0  0  0
 15 35  1  0  0  0  0
 15 52  1  0  0  0  0
 15 53  1  0  0  0  0
 16 18  1  0  0  0  0
 16 20  1  0  0  0  0
 16 54  1  0  0  0  0
 16 55  1  0  0  0  0
 17 19  1  0  0  0  0
 17 21  1  0  0  0  0
 17 56  1  0  0  0  0
 17 57  1  0  0  0  0
 18 22  1  0  0  0  0
 18 58  1  0  0  0  0
 18 59  1  0  0  0  0
 19 23  1  0  0  0  0
 19 60  1  0  0  0  0
 19 61  1  0  0  0  0
 20 30  1  0  0  0  0
 20 31  1  0  0  0  0
 20 62  1  0  0  0  0
 21 32  1  0  0  0  0
 21 33  1  0  0  0  0
 21 63  1  0  0  0  0
 22 24  1  0  0  0  0
 22 64  1  0  0  0  0
 22 65  1  0  0  0  0
 23 25  1  0  0  0  0
 23 66  1  0  0  0  0
 23 67  1  0  0  0  0
 24 28  1  0  0  0  0
 24 68  1  0  0  0  0
 24 69  1  0  0  0  0
 25 29  1  0  0  0  0
 25 70  1  0  0  0  0
 25 71  1  0  0  0  0
 26 36  1  0  0  0  0
 26 72  1  0  0  0  0
 26 73  1  0  0  0  0
 27 37  1  0  0  0  0
 27 74  1  0  0  0  0
 27 75  1  0  0  0  0
 28 76  1  0  0  0  0
 28 77  1  0  0  0  0
 29 78  1  0  0  0  0
 29 79  1  0  0  0  0
 30 80  1  0  0  0  0
 30 81  1  0  0  0  0
 30 82  1  0  0  0  0
 31 83  1  0  0  0  0
 31 84  1  0  0  0  0
 31 85  1  0  0  0  0
 32 86  1  0  0  0  0
 32 87  1  0  0  0  0
 32 88  1  0  0  0  0
 33 89  1  0  0  0  0
 33 90  1  0  0  0  0
 33 91  1  0  0  0  0
 38 40  1  0  0  0  0
 38 92  1  0  0  0  0
 38 93  1  0  0  0  0
 39 41  1  0  0  0  0
 39 94  1  0  0  0  0
 39 95  1  0  0  0  0
 40 42  1  0  0  0  0
 40 96  1  0  0  0  0
 40 97  1  0  0  0  0
 41 43  1  0  0  0  0
 41 98  1  0  0  0  0
 41 99  1  0  0  0  0
 42 44  1  0  0  0  0
 42100  1  0  0  0  0
 42101  1  0  0  0  0
 43 45  1  0  0  0  0
 43102  1  0  0  0  0
 43103  1  0  0  0  0
 44104  1  0  0  0  0
 44105  1  0  0  0  0
 44106  1  0  0  0  0
 45107  1  0  0  0  0
 45108  1  0  0  0  0
 45109  1  0  0  0  0
M  END
> <PUBCHEM_COMPOUND_CID>
9576625

> <PUBCHEM_COMPOUND_CANONICALIZED>
1

> <PUBCHEM_CACTVS_COMPLEXITY>
730

> <PUBCHEM_CACTVS_HBOND_ACCEPTOR>
10

> <PUBCHEM_CACTVS_HBOND_DONOR>
0

> <PUBCHEM_CACTVS_ROTATABLE_BOND>
34

> <PUBCHEM_CACTVS_SUBSKEYS>
AAADcfB8PABgAAAAAACAAAAAAAAAAAAAAAAAAAAAAAAAAAAAAAAAGgQAAAAADQCkwAKCCAAABAAIAACQCAAAAAAAAAAAAAEAAAAAAAIAAAACAAAEAAAAAAGAwGAMAAAAAAAAAAAAAAAAAAAAAAAAAAAAAA==

> <PUBCHEM_IUPAC_OPENEYE_NAME>
butyl 3-[(3-butoxy-3-oxo-propyl)-bis[[2-(6-methylheptoxy)-2-oxo-ethyl]sulfanyl]stannyl]propanoate

> <PUBCHEM_IUPAC_CAS_NAME>
3-[(3-butoxy-3-oxopropyl)-bis[[2-(6-methylheptoxy)-2-oxoethyl]thio]stannyl]propanoic acid butyl ester

> <PUBCHEM_IUPAC_NAME_MARKUP>
butyl 3-[(3-butoxy-3-oxopropyl)-bis[[2-(6-methylheptoxy)-2-oxoethyl]sulfanyl]stannyl]propanoate

> <PUBCHEM_IUPAC_NAME>
butyl 3-[(3-butoxy-3-oxopropyl)-bis[[2-(6-methylheptoxy)-2-oxoethyl]sulfanyl]stannyl]propanoate

> <PUBCHEM_IUPAC_SYSTEMATIC_NAME>
butyl 3-[(3-butoxy-3-oxidanylidene-propyl)-bis[[2-(6-methylheptoxy)-2-oxidanylidene-ethyl]sulfanyl]stannyl]propanoate

> <PUBCHEM_IUPAC_TRADITIONAL_NAME>
3-[(3-butoxy-3-keto-propyl)-bis[[2-keto-2-(6-methylheptoxy)ethyl]thio]stannyl]propionic acid butyl ester

> <PUBCHEM_IUPAC_INCHI>
InChI=1S/2C10H20O2S.2C7H13O2.Sn/c2*1-9(2)6-4-3-5-7-12-10(11)8-13;2*1-3-5-6-9-7(8)4-2;/h2*9,13H,3-8H2,1-2H3;2*2-6H2,1H3;/q;;;;+2/p-2

> <PUBCHEM_IUPAC_INCHIKEY>
GMQMYECSRQAAJP-UHFFFAOYSA-L

> <PUBCHEM_EXACT_MASS>
784.306464

> <PUBCHEM_MOLECULAR_FORMULA>
C34H64O8S2Sn

> <PUBCHEM_MOLECULAR_WEIGHT>
783.7

> <PUBCHEM_SMILES>
CCCCOC(=O)CC[Sn](CCC(=O)OCCCC)(SCC(=O)OCCCCCC(C)C)SCC(=O)OCCCCCC(C)C

> <PUBCHEM_OPENEYE_CAN_SMILES>
CCCCOC(=O)CC[Sn](CCC(=O)OCCCC)(SCC(=O)OCCCCCC(C)C)SCC(=O)OCCCCCC(C)C

> <PUBCHEM_OPENEYE_ISO_SMILES>
CCCCOC(=O)CC[Sn](CCC(=O)OCCCC)(SCC(=O)OCCCCCC(C)C)SCC(=O)OCCCCCC(C)C

> <PUBCHEM_CACTVS_TPSA>
156

> <PUBCHEM_MONOISOTOPIC_WEIGHT>
784.306464

> <PUBCHEM_TOTAL_CHARGE>
0

> <PUBCHEM_HEAVY_ATOM_COUNT>
45

> <PUBCHEM_ATOM_DEF_STEREO_COUNT>
0

> <PUBCHEM_ATOM_UDEF_STEREO_COUNT>
0

> <PUBCHEM_BOND_DEF_STEREO_COUNT>
0

> <PUBCHEM_BOND_UDEF_STEREO_COUNT>
0

> <PUBCHEM_ISOTOPIC_ATOM_COUNT>
0

> <PUBCHEM_COMPONENT_COUNT>
1

> <PUBCHEM_CACTVS_TAUTO_COUNT>
-1

> <PUBCHEM_COORDINATE_TYPE>
1
5
255

$$$$
