9576033
  -OEChem-04042505492D

115114  0     1  0  0  0  0  0999 V2000
   10.6603    0.0000    0.0000 Sn  0  0  0  0  0  0  0  0  0  0  0  0
   11.5263    0.5000    0.0000 S   0  0  0  0  0  0  0  0  0  0  0  0
    9.7942   -0.5000    0.0000 S   0  0  0  0  0  0  0  0  0  0  0  0
   14.1244   -0.0000    0.0000 O   0  0  0  0  0  0  0  0  0  0  0  0
    7.1962   -0.0000    0.0000 O   0  0  0  0  0  0  0  0  0  0  0  0
   13.2583    1.5000    0.0000 O   0  0  0  0  0  0  0  0  0  0  0  0
    8.0622   -1.5000    0.0000 O   0  0  0  0  0  0  0  0  0  0  0  0
   10.1603    0.8660    0.0000 C   0  0  0  0  0  0  0  0  0  0  0  0
   11.1603   -0.8660    0.0000 C   0  0  0  0  0  0  0  0  0  0  0  0
   10.6603    1.7320    0.0000 C   0  0  0  0  0  0  0  0  0  0  0  0
   10.6603   -1.7320    0.0000 C   0  0  0  0  0  0  0  0  0  0  0  0
   10.1603    2.5981    0.0000 C   0  0  0  0  0  0  0  0  0  0  0  0
   11.1603   -2.5981    0.0000 C   0  0  0  0  0  0  0  0  0  0  0  0
   10.6603    3.4641    0.0000 C   0  0  0  0  0  0  0  0  0  0  0  0
   10.6603   -3.4641    0.0000 C   0  0  0  0  0  0  0  0  0  0  0  0
   10.1603    4.3301    0.0000 C   0  0  0  0  0  0  0  0  0  0  0  0
   11.1603   -4.3301    0.0000 C   0  0  0  0  0  0  0  0  0  0  0  0
   12.3923    0.0000    0.0000 C   0  0  0  0  0  0  0  0  0  0  0  0
    8.9282   -0.0000    0.0000 C   0  0  0  0  0  0  0  0  0  0  0  0
   15.8564   -0.0000    0.0000 C   0  0  3  0  0  0  0  0  0  0  0  0
    5.4641   -0.0000    0.0000 C   0  0  3  0  0  0  0  0  0  0  0  0
   10.6603    5.1962    0.0000 C   0  0  0  0  0  0  0  0  0  0  0  0
   10.6603   -5.1962    0.0000 C   0  0  0  0  0  0  0  0  0  0  0  0
   16.7224    0.5000    0.0000 C   0  0  0  0  0  0  0  0  0  0  0  0
    4.5981   -0.5000    0.0000 C   0  0  0  0  0  0  0  0  0  0  0  0
   14.9904    0.5000    0.0000 C   0  0  0  0  0  0  0  0  0  0  0  0
    6.3301   -0.5000    0.0000 C   0  0  0  0  0  0  0  0  0  0  0  0
   15.8564   -1.0000    0.0000 C   0  0  0  0  0  0  0  0  0  0  0  0
    5.4641    1.0000    0.0000 C   0  0  0  0  0  0  0  0  0  0  0  0
   10.1603    6.0622    0.0000 C   0  0  0  0  0  0  0  0  0  0  0  0
   11.1603   -6.0622    0.0000 C   0  0  0  0  0  0  0  0  0  0  0  0
   17.5885   -0.0000    0.0000 C   0  0  0  0  0  0  0  0  0  0  0  0
    3.7320   -0.0000    0.0000 C   0  0  0  0  0  0  0  0  0  0  0  0
   13.2583    0.5000    0.0000 C   0  0  0  0  0  0  0  0  0  0  0  0
    8.0622   -0.5000    0.0000 C   0  0  0  0  0  0  0  0  0  0  0  0
   18.4545    0.5000    0.0000 C   0  0  0  0  0  0  0  0  0  0  0  0
    2.8660   -0.5000    0.0000 C   0  0  0  0  0  0  0  0  0  0  0  0
   16.7224   -1.5000    0.0000 C   0  0  0  0  0  0  0  0  0  0  0  0
    4.5981    1.5000    0.0000 C   0  0  0  0  0  0  0  0  0  0  0  0
   10.6603    6.9282    0.0000 C   0  0  0  0  0  0  0  0  0  0  0  0
   10.6603   -6.9282    0.0000 C   0  0  0  0  0  0  0  0  0  0  0  0
   19.3205   -0.0000    0.0000 C   0  0  0  0  0  0  0  0  0  0  0  0
    2.0000   -0.0000    0.0000 C   0  0  0  0  0  0  0  0  0  0  0  0
    9.6853    1.2646    0.0000 H   0  0  0  0  0  0  0  0  0  0  0  0
    9.6853    0.4675    0.0000 H   0  0  0  0  0  0  0  0  0  0  0  0
   11.6352   -1.2646    0.0000 H   0  0  0  0  0  0  0  0  0  0  0  0
   11.6352   -0.4675    0.0000 H   0  0  0  0  0  0  0  0  0  0  0  0
   11.1352    1.3335    0.0000 H   0  0  0  0  0  0  0  0  0  0  0  0
   11.1352    2.1306    0.0000 H   0  0  0  0  0  0  0  0  0  0  0  0
   10.1853   -1.3335    0.0000 H   0  0  0  0  0  0  0  0  0  0  0  0
   10.1853   -2.1306    0.0000 H   0  0  0  0  0  0  0  0  0  0  0  0
    9.6853    2.9966    0.0000 H   0  0  0  0  0  0  0  0  0  0  0  0
    9.6853    2.1996    0.0000 H   0  0  0  0  0  0  0  0  0  0  0  0
   11.6352   -2.9966    0.0000 H   0  0  0  0  0  0  0  0  0  0  0  0
   11.6352   -2.1996    0.0000 H   0  0  0  0  0  0  0  0  0  0  0  0
   11.1352    3.0656    0.0000 H   0  0  0  0  0  0  0  0  0  0  0  0
   11.1352    3.8626    0.0000 H   0  0  0  0  0  0  0  0  0  0  0  0
   10.1853   -3.0656    0.0000 H   0  0  0  0  0  0  0  0  0  0  0  0
   10.1853   -3.8626    0.0000 H   0  0  0  0  0  0  0  0  0  0  0  0
    9.6853    4.7287    0.0000 H   0  0  0  0  0  0  0  0  0  0  0  0
    9.6853    3.9316    0.0000 H   0  0  0  0  0  0  0  0  0  0  0  0
   11.6352   -4.7287    0.0000 H   0  0  0  0  0  0  0  0  0  0  0  0
   11.6352   -3.9316    0.0000 H   0  0  0  0  0  0  0  0  0  0  0  0
   11.9938   -0.4749    0.0000 H   0  0  0  0  0  0  0  0  0  0  0  0
   12.7908   -0.4749    0.0000 H   0  0  0  0  0  0  0  0  0  0  0  0
    9.3267    0.4749    0.0000 H   0  0  0  0  0  0  0  0  0  0  0  0
    8.5297    0.4749    0.0000 H   0  0  0  0  0  0  0  0  0  0  0  0
   16.3933   -0.3100    0.0000 H   0  0  0  0  0  0  0  0  0  0  0  0
    5.4641   -0.6200    0.0000 H   0  0  0  0  0  0  0  0  0  0  0  0
   11.1352    4.7976    0.0000 H   0  0  0  0  0  0  0  0  0  0  0  0
   11.1352    5.5947    0.0000 H   0  0  0  0  0  0  0  0  0  0  0  0
   10.1853   -4.7976    0.0000 H   0  0  0  0  0  0  0  0  0  0  0  0
   10.1853   -5.5947    0.0000 H   0  0  0  0  0  0  0  0  0  0  0  0
   17.1210    0.9749    0.0000 H   0  0  0  0  0  0  0  0  0  0  0  0
   16.3239    0.9749    0.0000 H   0  0  0  0  0  0  0  0  0  0  0  0
    4.1996   -0.9749    0.0000 H   0  0  0  0  0  0  0  0  0  0  0  0
    4.9966   -0.9749    0.0000 H   0  0  0  0  0  0  0  0  0  0  0  0
   15.3889    0.9749    0.0000 H   0  0  0  0  0  0  0  0  0  0  0  0
   14.5919    0.9749    0.0000 H   0  0  0  0  0  0  0  0  0  0  0  0
    5.9316   -0.9749    0.0000 H   0  0  0  0  0  0  0  0  0  0  0  0
    6.7287   -0.9749    0.0000 H   0  0  0  0  0  0  0  0  0  0  0  0
   15.2458   -0.8923    0.0000 H   0  0  0  0  0  0  0  0  0  0  0  0
   15.6444   -1.5826    0.0000 H   0  0  0  0  0  0  0  0  0  0  0  0
    6.0747    0.8923    0.0000 H   0  0  0  0  0  0  0  0  0  0  0  0
    5.6762    1.5826    0.0000 H   0  0  0  0  0  0  0  0  0  0  0  0
    9.6853    6.4607    0.0000 H   0  0  0  0  0  0  0  0  0  0  0  0
    9.6853    5.6636    0.0000 H   0  0  0  0  0  0  0  0  0  0  0  0
   11.6352   -6.4607    0.0000 H   0  0  0  0  0  0  0  0  0  0  0  0
   11.6352   -5.6636    0.0000 H   0  0  0  0  0  0  0  0  0  0  0  0
   17.1899   -0.4749    0.0000 H   0  0  0  0  0  0  0  0  0  0  0  0
   17.9870   -0.4749    0.0000 H   0  0  0  0  0  0  0  0  0  0  0  0
    4.1306    0.4749    0.0000 H   0  0  0  0  0  0  0  0  0  0  0  0
    3.3335    0.4749    0.0000 H   0  0  0  0  0  0  0  0  0  0  0  0
   18.8530    0.9749    0.0000 H   0  0  0  0  0  0  0  0  0  0  0  0
   18.0560    0.9749    0.0000 H   0  0  0  0  0  0  0  0  0  0  0  0
    2.4675   -0.9749    0.0000 H   0  0  0  0  0  0  0  0  0  0  0  0
    3.2646   -0.9749    0.0000 H   0  0  0  0  0  0  0  0  0  0  0  0
   16.4124   -2.0369    0.0000 H   0  0  0  0  0  0  0  0  0  0  0  0
   17.2594   -1.8100    0.0000 H   0  0  0  0  0  0  0  0  0  0  0  0
   17.0324   -0.9631    0.0000 H   0  0  0  0  0  0  0  0  0  0  0  0
    4.9081    2.0369    0.0000 H   0  0  0  0  0  0  0  0  0  0  0  0
    4.0611    1.8100    0.0000 H   0  0  0  0  0  0  0  0  0  0  0  0
    4.2881    0.9631    0.0000 H   0  0  0  0  0  0  0  0  0  0  0  0
   11.1972    6.6182    0.0000 H   0  0  0  0  0  0  0  0  0  0  0  0
   10.9703    7.4651    0.0000 H   0  0  0  0  0  0  0  0  0  0  0  0
   10.1233    7.2382    0.0000 H   0  0  0  0  0  0  0  0  0  0  0  0
   10.1233   -6.6182    0.0000 H   0  0  0  0  0  0  0  0  0  0  0  0
   10.3503   -7.4651    0.0000 H   0  0  0  0  0  0  0  0  0  0  0  0
   11.1972   -7.2382    0.0000 H   0  0  0  0  0  0  0  0  0  0  0  0
   19.0105   -0.5369    0.0000 H   0  0  0  0  0  0  0  0  0  0  0  0
   19.8574   -0.3100    0.0000 H   0  0  0  0  0  0  0  0  0  0  0  0
   19.6305    0.5369    0.0000 H   0  0  0  0  0  0  0  0  0  0  0  0
    2.3100    0.5369    0.0000 H   0  0  0  0  0  0  0  0  0  0  0  0
    1.4631    0.3100    0.0000 H   0  0  0  0  0  0  0  0  0  0  0  0
    1.6900   -0.5369    0.0000 H   0  0  0  0  0  0  0  0  0  0  0  0
  1  2  1  0  0  0  0
  1  3  1  0  0  0  0
  1  8  1  0  0  0  0
  1  9  1  0  0  0  0
  2 18  1  0  0  0  0
  3 19  1  0  0  0  0
  4 26  1  0  0  0  0
  4 34  1  0  0  0  0
  5 27  1  0  0  0  0
  5 35  1  0  0  0  0
  6 34  2  0  0  0  0
  7 35  2  0  0  0  0
  8 10  1  0  0  0  0
  8 44  1  0  0  0  0
  8 45  1  0  0  0  0
  9 11  1  0  0  0  0
  9 46  1  0  0  0  0
  9 47  1  0  0  0  0
 10 12  1  0  0  0  0
 10 48  1  0  0  0  0
 10 49  1  0  0  0  0
 11 13  1  0  0  0  0
 11 50  1  0  0  0  0
 11 51  1  0  0  0  0
 12 14  1  0  0  0  0
 12 52  1  0  0  0  0
 12 53  1  0  0  0  0
 13 15  1  0  0  0  0
 13 54  1  0  0  0  0
 13 55  1  0  0  0  0
 14 16  1  0  0  0  0
 14 56  1  0  0  0  0
 14 57  1  0  0  0  0
 15 17  1  0  0  0  0
 15 58  1  0  0  0  0
 15 59  1  0  0  0  0
 16 22  1  0  0  0  0
 16 60  1  0  0  0  0
 16 61  1  0  0  0  0
 17 23  1  0  0  0  0
 17 62  1  0  0  0  0
 17 63  1  0  0  0  0
 18 34  1  0  0  0  0
 18 64  1  0  0  0  0
 18 65  1  0  0  0  0
 19 35  1  0  0  0  0
 19 66  1  0  0  0  0
 19 67  1  0  0  0  0
 20 24  1  0  0  0  0
 20 26  1  0  0  0  0
 20 28  1  0  0  0  0
 20 68  1  0  0  0  0
 21 25  1  0  0  0  0
 21 27  1  0  0  0  0
 21 29  1  0  0  0  0
 21 69  1  0  0  0  0
 22 30  1  0  0  0  0
 22 70  1  0  0  0  0
 22 71  1  0  0  0  0
 23 31  1  0  0  0  0
 23 72  1  0  0  0  0
 23 73  1  0  0  0  0
 24 32  1  0  0  0  0
 24 74  1  0  0  0  0
 24 75  1  0  0  0  0
 25 33  1  0  0  0  0
 25 76  1  0  0  0  0
 25 77  1  0  0  0  0
 26 78  1  0  0  0  0
 26 79  1  0  0  0  0
 27 80  1  0  0  0  0
 27 81  1  0  0  0  0
 28 38  1  0  0  0  0
 28 82  1  0  0  0  0
 28 83  1  0  0  0  0
 29 39  1  0  0  0  0
 29 84  1  0  0  0  0
 29 85  1  0  0  0  0
 30 40  1  0  0  0  0
 30 86  1  0  0  0  0
 30 87  1  0  0  0  0
 31 41  1  0  0  0  0
 31 88  1  0  0  0  0
 31 89  1  0  0  0  0
 32 36  1  0  0  0  0
 32 90  1  0  0  0  0
 32 91  1  0  0  0  0
 33 37  1  0  0  0  0
 33 92  1  0  0  0  0
 33 93  1  0  0  0  0
 36 42  1  0  0  0  0
 36 94  1  0  0  0  0
 36 95  1  0  0  0  0
 37 43  1  0  0  0  0
 37 96  1  0  0  0  0
 37 97  1  0  0  0  0
 38 98  1  0  0  0  0
 38 99  1  0  0  0  0
 38100  1  0  0  0  0
 39101  1  0  0  0  0
 39102  1  0  0  0  0
 39103  1  0  0  0  0
 40104  1  0  0  0  0
 40105  1  0  0  0  0
 40106  1  0  0  0  0
 41107  1  0  0  0  0
 41108  1  0  0  0  0
 41109  1  0  0  0  0
 42110  1  0  0  0  0
 42111  1  0  0  0  0
 42112  1  0  0  0  0
 43113  1  0  0  0  0
 43114  1  0  0  0  0
 43115  1  0  0  0  0
M  END
> <PUBCHEM_COMPOUND_CID>
9576033

> <PUBCHEM_COMPOUND_CANONICALIZED>
1

> <PUBCHEM_CACTVS_COMPLEXITY>
595

> <PUBCHEM_CACTVS_HBOND_ACCEPTOR>
6

> <PUBCHEM_CACTVS_HBOND_DONOR>
0

> <PUBCHEM_CACTVS_ROTATABLE_BOND>
34

> <PUBCHEM_CACTVS_SUBSKEYS>
AAADcfB8OABgAAAAAACAAAAAAAAAAAAAAAAAAAAAAAAAAAAAAAAAGgQAAAAADQCkwAKCCAAABAAIAACQCAAAAAAAAAAAAAAAAAAAAAIAAAACAAAEAAAAAAGAwIAOAAAAAAAAAAAAAAAAAAAAAAAAAAAAAA==

> <PUBCHEM_IUPAC_OPENEYE_NAME>
2-ethylhexyl 2-[[2-(2-ethylhexoxy)-2-oxo-ethyl]sulfanyl-dioctyl-stannyl]sulfanylacetate

> <PUBCHEM_IUPAC_CAS_NAME>
2-[[[[2-(2-ethylhexoxy)-2-oxoethyl]thio]-dioctylstannyl]thio]acetic acid 2-ethylhexyl ester

> <PUBCHEM_IUPAC_NAME_MARKUP>
2-ethylhexyl 2-[[2-(2-ethylhexoxy)-2-oxoethyl]sulfanyl-dioctylstannyl]sulfanylacetate

> <PUBCHEM_IUPAC_NAME>
2-ethylhexyl 2-[[2-(2-ethylhexoxy)-2-oxoethyl]sulfanyl-dioctylstannyl]sulfanylacetate

> <PUBCHEM_IUPAC_SYSTEMATIC_NAME>
2-ethylhexyl 2-[[2-(2-ethylhexoxy)-2-oxidanylidene-ethyl]sulfanyl-dioctyl-stannyl]sulfanylethanoate

> <PUBCHEM_IUPAC_TRADITIONAL_NAME>
2-[[[[2-(2-ethylhexoxy)-2-keto-ethyl]thio]-dioctyl-stannyl]thio]acetic acid 2-ethylhexyl ester

> <PUBCHEM_IUPAC_INCHI>
InChI=1S/2C10H20O2S.2C8H17.Sn/c2*1-3-5-6-9(4-2)7-12-10(11)8-13;2*1-3-5-7-8-6-4-2;/h2*9,13H,3-8H2,1-2H3;2*1,3-8H2,2H3;/q;;;;+2/p-2

> <PUBCHEM_IUPAC_INCHIKEY>
VXGIVDFKZKMKQO-UHFFFAOYSA-L

> <PUBCHEM_EXACT_MASS>
752.389406

> <PUBCHEM_MOLECULAR_FORMULA>
C36H72O4S2Sn

> <PUBCHEM_MOLECULAR_WEIGHT>
751.8

> <PUBCHEM_SMILES>
CCCCCCCC[Sn](CCCCCCCC)(SCC(=O)OCC(CC)CCCC)SCC(=O)OCC(CC)CCCC

> <PUBCHEM_OPENEYE_CAN_SMILES>
CCCCCCCC[Sn](CCCCCCCC)(SCC(=O)OCC(CC)CCCC)SCC(=O)OCC(CC)CCCC

> <PUBCHEM_OPENEYE_ISO_SMILES>
CCCCCCCC[Sn](CCCCCCCC)(SCC(=O)OCC(CC)CCCC)SCC(=O)OCC(CC)CCCC

> <PUBCHEM_CACTVS_TPSA>
103

> <PUBCHEM_MONOISOTOPIC_WEIGHT>
752.389406

> <PUBCHEM_TOTAL_CHARGE>
0

> <PUBCHEM_HEAVY_ATOM_COUNT>
43

> <PUBCHEM_ATOM_DEF_STEREO_COUNT>
0

> <PUBCHEM_ATOM_UDEF_STEREO_COUNT>
2

> <PUBCHEM_BOND_DEF_STEREO_COUNT>
0

> <PUBCHEM_BOND_UDEF_STEREO_COUNT>
0

> <PUBCHEM_ISOTOPIC_ATOM_COUNT>
0

> <PUBCHEM_COMPONENT_COUNT>
1

> <PUBCHEM_CACTVS_TAUTO_COUNT>
-1

> <PUBCHEM_COORDINATE_TYPE>
1
5
255

> <PUBCHEM_BONDANNOTATIONS>
20  28  3
21  29  3

$$$$
