9577639
  -OEChem-04042505492D

 71 71  0     0  0  0  0  0  0999 V2000
    7.0142    0.6517    0.0000 Sn  0  0  0  0  0  0  0  0  0  0  0  0
    6.0547    0.9334    0.0000 S   0  0  0  0  0  0  0  0  0  0  0  0
    7.9737    0.9334    0.0000 S   0  0  0  0  0  0  0  0  0  0  0  0
    5.6729    3.5886    0.0000 O   0  0  0  0  0  0  0  0  0  0  0  0
    8.3554    3.5886    0.0000 O   0  0  0  0  0  0  0  0  0  0  0  0
    4.2677    2.8213    0.0000 O   0  0  0  0  0  0  0  0  0  0  0  0
    9.7607    2.8213    0.0000 O   0  0  0  0  0  0  0  0  0  0  0  0
    6.7324   -0.3078    0.0000 C   0  0  0  0  0  0  0  0  0  0  0  0
    7.6071   -0.1536    0.0000 C   0  0  0  0  0  0  0  0  0  0  0  0
    5.7606   -0.5435    0.0000 C   0  0  0  0  0  0  0  0  0  0  0  0
    8.6009   -0.0427    0.0000 C   0  0  0  0  0  0  0  0  0  0  0  0
    5.4789   -1.5030    0.0000 C   0  0  0  0  0  0  0  0  0  0  0  0
    9.1938   -0.8480    0.0000 C   0  0  0  0  0  0  0  0  0  0  0  0
    4.5071   -1.7388    0.0000 C   0  0  0  0  0  0  0  0  0  0  0  0
   10.1877   -0.7371    0.0000 C   0  0  0  0  0  0  0  0  0  0  0  0
    4.2254   -2.6983    0.0000 C   0  0  0  0  0  0  0  0  0  0  0  0
   10.7806   -1.5424    0.0000 C   0  0  0  0  0  0  0  0  0  0  0  0
    3.2535   -2.9340    0.0000 C   0  0  0  0  0  0  0  0  0  0  0  0
   11.7744   -1.4316    0.0000 C   0  0  0  0  0  0  0  0  0  0  0  0
    5.3998    1.6892    0.0000 C   0  0  0  0  0  0  0  0  0  0  0  0
    8.6285    1.6892    0.0000 C   0  0  0  0  0  0  0  0  0  0  0  0
    2.9718   -3.8935    0.0000 C   0  0  0  0  0  0  0  0  0  0  0  0
   12.3673   -2.2368    0.0000 C   0  0  0  0  0  0  0  0  0  0  0  0
    5.2575    2.6790    0.0000 C   0  0  0  0  0  0  0  0  0  0  0  0
    8.7708    2.6790    0.0000 C   0  0  0  0  0  0  0  0  0  0  0  0
    2.0000   -4.1293    0.0000 C   0  0  0  0  0  0  0  0  0  0  0  0
   13.3612   -2.1260    0.0000 C   0  0  0  0  0  0  0  0  0  0  0  0
    6.5142    4.1293    0.0000 C   0  0  0  0  0  0  0  0  0  0  0  0
    7.5142    4.1293    0.0000 C   0  0  0  0  0  0  0  0  0  0  0  0
    6.7718   -0.9265    0.0000 H   0  0  0  0  0  0  0  0  0  0  0  0
    7.3486   -0.3765    0.0000 H   0  0  0  0  0  0  0  0  0  0  0  0
    7.0516   -0.4289    0.0000 H   0  0  0  0  0  0  0  0  0  0  0  0
    7.7818   -0.7484    0.0000 H   0  0  0  0  0  0  0  0  0  0  0  0
    5.7213    0.0752    0.0000 H   0  0  0  0  0  0  0  0  0  0  0  0
    5.1444   -0.4748    0.0000 H   0  0  0  0  0  0  0  0  0  0  0  0
    9.1564    0.2326    0.0000 H   0  0  0  0  0  0  0  0  0  0  0  0
    8.4262    0.5522    0.0000 H   0  0  0  0  0  0  0  0  0  0  0  0
    5.5182   -2.1218    0.0000 H   0  0  0  0  0  0  0  0  0  0  0  0
    6.0951   -1.5718    0.0000 H   0  0  0  0  0  0  0  0  0  0  0  0
    8.6383   -1.1233    0.0000 H   0  0  0  0  0  0  0  0  0  0  0  0
    9.3685   -1.4429    0.0000 H   0  0  0  0  0  0  0  0  0  0  0  0
    4.4678   -1.1200    0.0000 H   0  0  0  0  0  0  0  0  0  0  0  0
    3.8909   -1.6701    0.0000 H   0  0  0  0  0  0  0  0  0  0  0  0
   10.7432   -0.4618    0.0000 H   0  0  0  0  0  0  0  0  0  0  0  0
   10.0130   -0.1423    0.0000 H   0  0  0  0  0  0  0  0  0  0  0  0
    4.2647   -3.3170    0.0000 H   0  0  0  0  0  0  0  0  0  0  0  0
    4.8415   -2.7670    0.0000 H   0  0  0  0  0  0  0  0  0  0  0  0
   10.2251   -1.8177    0.0000 H   0  0  0  0  0  0  0  0  0  0  0  0
   10.9553   -2.1373    0.0000 H   0  0  0  0  0  0  0  0  0  0  0  0
    3.2142   -2.3153    0.0000 H   0  0  0  0  0  0  0  0  0  0  0  0
    2.6374   -2.8653    0.0000 H   0  0  0  0  0  0  0  0  0  0  0  0
   12.3299   -1.1563    0.0000 H   0  0  0  0  0  0  0  0  0  0  0  0
   11.5997   -0.8367    0.0000 H   0  0  0  0  0  0  0  0  0  0  0  0
    4.7910    1.8065    0.0000 H   0  0  0  0  0  0  0  0  0  0  0  0
    5.9638    1.9468    0.0000 H   0  0  0  0  0  0  0  0  0  0  0  0
    8.9385    1.1523    0.0000 H   0  0  0  0  0  0  0  0  0  0  0  0
    8.0646    1.9468    0.0000 H   0  0  0  0  0  0  0  0  0  0  0  0
    3.0111   -4.5123    0.0000 H   0  0  0  0  0  0  0  0  0  0  0  0
    3.5880   -3.9622    0.0000 H   0  0  0  0  0  0  0  0  0  0  0  0
   11.8118   -2.5122    0.0000 H   0  0  0  0  0  0  0  0  0  0  0  0
   12.5420   -2.8317    0.0000 H   0  0  0  0  0  0  0  0  0  0  0  0
    1.8538   -3.5268    0.0000 H   0  0  0  0  0  0  0  0  0  0  0  0
    1.3975   -4.2755    0.0000 H   0  0  0  0  0  0  0  0  0  0  0  0
    2.1462   -4.7318    0.0000 H   0  0  0  0  0  0  0  0  0  0  0  0
   13.4299   -2.7422    0.0000 H   0  0  0  0  0  0  0  0  0  0  0  0
   13.9773   -2.0573    0.0000 H   0  0  0  0  0  0  0  0  0  0  0  0
   13.2924   -1.5098    0.0000 H   0  0  0  0  0  0  0  0  0  0  0  0
    6.7170    4.7152    0.0000 H   0  0  0  0  0  0  0  0  0  0  0  0
    6.6888    3.5344    0.0000 H   0  0  0  0  0  0  0  0  0  0  0  0
    8.0015    4.5126    0.0000 H   0  0  0  0  0  0  0  0  0  0  0  0
    7.3395    3.5344    0.0000 H   0  0  0  0  0  0  0  0  0  0  0  0
  1  2  1  0  0  0  0
  1  3  1  0  0  0  0
  1  8  1  0  0  0  0
  1  9  1  0  0  0  0
  2 20  1  0  0  0  0
  3 21  1  0  0  0  0
  4 24  1  0  0  0  0
  4 28  1  0  0  0  0
  5 25  1  0  0  0  0
  5 29  1  0  0  0  0
  6 24  2  0  0  0  0
  7 25  2  0  0  0  0
  8 10  1  0  0  0  0
  8 30  1  0  0  0  0
  8 31  1  0  0  0  0
  9 11  1  0  0  0  0
  9 32  1  0  0  0  0
  9 33  1  0  0  0  0
 10 12  1  0  0  0  0
 10 34  1  0  0  0  0
 10 35  1  0  0  0  0
 11 13  1  0  0  0  0
 11 36  1  0  0  0  0
 11 37  1  0  0  0  0
 12 14  1  0  0  0  0
 12 38  1  0  0  0  0
 12 39  1  0  0  0  0
 13 15  1  0  0  0  0
 13 40  1  0  0  0  0
 13 41  1  0  0  0  0
 14 16  1  0  0  0  0
 14 42  1  0  0  0  0
 14 43  1  0  0  0  0
 15 17  1  0  0  0  0
 15 44  1  0  0  0  0
 15 45  1  0  0  0  0
 16 18  1  0  0  0  0
 16 46  1  0  0  0  0
 16 47  1  0  0  0  0
 17 19  1  0  0  0  0
 17 48  1  0  0  0  0
 17 49  1  0  0  0  0
 18 22  1  0  0  0  0
 18 50  1  0  0  0  0
 18 51  1  0  0  0  0
 19 23  1  0  0  0  0
 19 52  1  0  0  0  0
 19 53  1  0  0  0  0
 20 24  1  0  0  0  0
 20 54  1  0  0  0  0
 20 55  1  0  0  0  0
 21 25  1  0  0  0  0
 21 56  1  0  0  0  0
 21 57  1  0  0  0  0
 22 26  1  0  0  0  0
 22 58  1  0  0  0  0
 22 59  1  0  0  0  0
 23 27  1  0  0  0  0
 23 60  1  0  0  0  0
 23 61  1  0  0  0  0
 26 62  1  0  0  0  0
 26 63  1  0  0  0  0
 26 64  1  0  0  0  0
 27 65  1  0  0  0  0
 27 66  1  0  0  0  0
 27 67  1  0  0  0  0
 28 29  1  0  0  0  0
 28 68  1  0  0  0  0
 28 69  1  0  0  0  0
 29 70  1  0  0  0  0
 29 71  1  0  0  0  0
M  END
> <PUBCHEM_COMPOUND_CID>
9577639

> <PUBCHEM_COMPOUND_CANONICALIZED>
1

> <PUBCHEM_CACTVS_COMPLEXITY>
409

> <PUBCHEM_CACTVS_HBOND_ACCEPTOR>
6

> <PUBCHEM_CACTVS_HBOND_DONOR>
0

> <PUBCHEM_CACTVS_ROTATABLE_BOND>
14

> <PUBCHEM_CACTVS_SUBSKEYS>
AAADcfB4OABgAAAAAACAAAAAAAAAAAAAAAAAAAAAAAAAAAAAAAAAGgQAAAAACACkwAKCCAAABAAIAACQCAAAAAAAAAAAAAAAAAABAAIAAAACAAAAAAACAAEAgIAAAAAAAAAAAAAAAAAAAAAAAAAAAAAAAA==

> <PUBCHEM_IUPAC_OPENEYE_NAME>
5,5-dioctyl-1,9-dioxa-4,6-dithia-5-stannacycloundecane-2,8-dione

> <PUBCHEM_IUPAC_CAS_NAME>
5,5-dioctyl-1,9-dioxa-4,6-dithia-5-stannacycloundecane-2,8-dione

> <PUBCHEM_IUPAC_NAME_MARKUP>
5,5-dioctyl-1,9-dioxa-4,6-dithia-5-stannacycloundecane-2,8-dione

> <PUBCHEM_IUPAC_NAME>
5,5-dioctyl-1,9-dioxa-4,6-dithia-5-stannacycloundecane-2,8-dione

> <PUBCHEM_IUPAC_SYSTEMATIC_NAME>
5,5-dioctyl-1,9-dioxa-4,6-dithia-5-stannacycloundecane-2,8-dione

> <PUBCHEM_IUPAC_TRADITIONAL_NAME>
5,5-dioctyl-1,9-dioxa-4,6-dithia-5-stannacycloundecane-2,8-quinone

> <PUBCHEM_IUPAC_INCHI>
InChI=1S/2C8H17.C6H10O4S2.Sn/c2*1-3-5-7-8-6-4-2;7-5(3-11)9-1-2-10-6(8)4-12;/h2*1,3-8H2,2H3;11-12H,1-4H2;/q;;;+2/p-2

> <PUBCHEM_IUPAC_INCHIKEY>
XTFWXVDCMIKXBZ-UHFFFAOYSA-L

> <PUBCHEM_EXACT_MASS>
554.154655

> <PUBCHEM_MOLECULAR_FORMULA>
C22H42O4S2Sn

> <PUBCHEM_MOLECULAR_WEIGHT>
553.4

> <PUBCHEM_SMILES>
CCCCCCCC[Sn]1(SCC(=O)OCCOC(=O)CS1)CCCCCCCC

> <PUBCHEM_OPENEYE_CAN_SMILES>
CCCCCCCC[Sn]1(SCC(=O)OCCOC(=O)CS1)CCCCCCCC

> <PUBCHEM_OPENEYE_ISO_SMILES>
CCCCCCCC[Sn]1(SCC(=O)OCCOC(=O)CS1)CCCCCCCC

> <PUBCHEM_CACTVS_TPSA>
103

> <PUBCHEM_MONOISOTOPIC_WEIGHT>
554.154655

> <PUBCHEM_TOTAL_CHARGE>
0

> <PUBCHEM_HEAVY_ATOM_COUNT>
29

> <PUBCHEM_ATOM_DEF_STEREO_COUNT>
0

> <PUBCHEM_ATOM_UDEF_STEREO_COUNT>
0

> <PUBCHEM_BOND_DEF_STEREO_COUNT>
0

> <PUBCHEM_BOND_UDEF_STEREO_COUNT>
0

> <PUBCHEM_ISOTOPIC_ATOM_COUNT>
0

> <PUBCHEM_COMPONENT_COUNT>
1

> <PUBCHEM_CACTVS_TAUTO_COUNT>
-1

> <PUBCHEM_COORDINATE_TYPE>
1
5
255

$$$$
