9577257
  -OEChem-04042505492D

139138  0     0  0  0  0  0  0999 V2000
   11.5263    0.0000    0.0000 Sn  0  0  0  0  0  0  0  0  0  0  0  0
   12.3923    0.5000    0.0000 S   0  0  0  0  0  0  0  0  0  0  0  0
   10.6603   -0.5000    0.0000 S   0  0  0  0  0  0  0  0  0  0  0  0
   14.9904   -0.0000    0.0000 O   0  0  0  0  0  0  0  0  0  0  0  0
    8.0622   -0.0000    0.0000 O   0  0  0  0  0  0  0  0  0  0  0  0
   14.1244    1.5000    0.0000 O   0  0  0  0  0  0  0  0  0  0  0  0
    8.9282   -1.5000    0.0000 O   0  0  0  0  0  0  0  0  0  0  0  0
   11.0263    0.8660    0.0000 C   0  0  0  0  0  0  0  0  0  0  0  0
   12.0263   -0.8660    0.0000 C   0  0  0  0  0  0  0  0  0  0  0  0
   11.5263    1.7320    0.0000 C   0  0  0  0  0  0  0  0  0  0  0  0
   11.5263   -1.7320    0.0000 C   0  0  0  0  0  0  0  0  0  0  0  0
   11.0263    2.5981    0.0000 C   0  0  0  0  0  0  0  0  0  0  0  0
   12.0263   -2.5981    0.0000 C   0  0  0  0  0  0  0  0  0  0  0  0
   11.5263    3.4641    0.0000 C   0  0  0  0  0  0  0  0  0  0  0  0
   11.5263   -3.4641    0.0000 C   0  0  0  0  0  0  0  0  0  0  0  0
   11.0263    4.3301    0.0000 C   0  0  0  0  0  0  0  0  0  0  0  0
   12.0263   -4.3301    0.0000 C   0  0  0  0  0  0  0  0  0  0  0  0
   11.5263    5.1962    0.0000 C   0  0  0  0  0  0  0  0  0  0  0  0
   11.5263   -5.1962    0.0000 C   0  0  0  0  0  0  0  0  0  0  0  0
   11.0263    6.0622    0.0000 C   0  0  0  0  0  0  0  0  0  0  0  0
   12.0263   -6.0622    0.0000 C   0  0  0  0  0  0  0  0  0  0  0  0
   13.2583    0.0000    0.0000 C   0  0  0  0  0  0  0  0  0  0  0  0
    9.7942   -0.0000    0.0000 C   0  0  0  0  0  0  0  0  0  0  0  0
   11.5263    6.9282    0.0000 C   0  0  0  0  0  0  0  0  0  0  0  0
   11.5263   -6.9282    0.0000 C   0  0  0  0  0  0  0  0  0  0  0  0
   11.0263    7.7942    0.0000 C   0  0  0  0  0  0  0  0  0  0  0  0
   12.0263   -7.7942    0.0000 C   0  0  0  0  0  0  0  0  0  0  0  0
   11.5263    8.6602    0.0000 C   0  0  0  0  0  0  0  0  0  0  0  0
   11.5263   -8.6602    0.0000 C   0  0  0  0  0  0  0  0  0  0  0  0
   14.1244    0.5000    0.0000 C   0  0  0  0  0  0  0  0  0  0  0  0
    8.9282   -0.5000    0.0000 C   0  0  0  0  0  0  0  0  0  0  0  0
   11.0263    9.5263    0.0000 C   0  0  0  0  0  0  0  0  0  0  0  0
   12.0263   -9.5263    0.0000 C   0  0  0  0  0  0  0  0  0  0  0  0
   17.5885    0.5000    0.0000 C   0  0  0  0  0  0  0  0  0  0  0  0
    5.4641   -0.5000    0.0000 C   0  0  0  0  0  0  0  0  0  0  0  0
   16.7224   -0.0000    0.0000 C   0  0  0  0  0  0  0  0  0  0  0  0
    6.3301   -0.0000    0.0000 C   0  0  0  0  0  0  0  0  0  0  0  0
   18.4545   -0.0000    0.0000 C   0  0  0  0  0  0  0  0  0  0  0  0
    4.5981   -0.0000    0.0000 C   0  0  0  0  0  0  0  0  0  0  0  0
   15.8564    0.5000    0.0000 C   0  0  0  0  0  0  0  0  0  0  0  0
    7.1962   -0.5000    0.0000 C   0  0  0  0  0  0  0  0  0  0  0  0
   19.3205    0.5000    0.0000 C   0  0  0  0  0  0  0  0  0  0  0  0
    3.7320   -0.5000    0.0000 C   0  0  0  0  0  0  0  0  0  0  0  0
   20.1865   -0.0000    0.0000 C   0  0  0  0  0  0  0  0  0  0  0  0
    2.8660   -0.0000    0.0000 C   0  0  0  0  0  0  0  0  0  0  0  0
   11.5263   10.3923    0.0000 C   0  0  0  0  0  0  0  0  0  0  0  0
   11.5263  -10.3923    0.0000 C   0  0  0  0  0  0  0  0  0  0  0  0
   21.0526    0.5000    0.0000 C   0  0  0  0  0  0  0  0  0  0  0  0
   20.1865   -1.0000    0.0000 C   0  0  0  0  0  0  0  0  0  0  0  0
    2.0000   -0.5000    0.0000 C   0  0  0  0  0  0  0  0  0  0  0  0
    2.8660    1.0000    0.0000 C   0  0  0  0  0  0  0  0  0  0  0  0
   10.5513    1.2646    0.0000 H   0  0  0  0  0  0  0  0  0  0  0  0
   10.5513    0.4675    0.0000 H   0  0  0  0  0  0  0  0  0  0  0  0
   12.5012   -1.2646    0.0000 H   0  0  0  0  0  0  0  0  0  0  0  0
   12.5012   -0.4675    0.0000 H   0  0  0  0  0  0  0  0  0  0  0  0
   12.0012    1.3335    0.0000 H   0  0  0  0  0  0  0  0  0  0  0  0
   12.0012    2.1306    0.0000 H   0  0  0  0  0  0  0  0  0  0  0  0
   11.0513   -1.3335    0.0000 H   0  0  0  0  0  0  0  0  0  0  0  0
   11.0513   -2.1306    0.0000 H   0  0  0  0  0  0  0  0  0  0  0  0
   10.5513    2.9966    0.0000 H   0  0  0  0  0  0  0  0  0  0  0  0
   10.5513    2.1996    0.0000 H   0  0  0  0  0  0  0  0  0  0  0  0
   12.5012   -2.9966    0.0000 H   0  0  0  0  0  0  0  0  0  0  0  0
   12.5012   -2.1996    0.0000 H   0  0  0  0  0  0  0  0  0  0  0  0
   12.0012    3.0656    0.0000 H   0  0  0  0  0  0  0  0  0  0  0  0
   12.0012    3.8626    0.0000 H   0  0  0  0  0  0  0  0  0  0  0  0
   11.0513   -3.0656    0.0000 H   0  0  0  0  0  0  0  0  0  0  0  0
   11.0513   -3.8626    0.0000 H   0  0  0  0  0  0  0  0  0  0  0  0
   10.5513    4.7287    0.0000 H   0  0  0  0  0  0  0  0  0  0  0  0
   10.5513    3.9316    0.0000 H   0  0  0  0  0  0  0  0  0  0  0  0
   12.5012   -4.7287    0.0000 H   0  0  0  0  0  0  0  0  0  0  0  0
   12.5012   -3.9316    0.0000 H   0  0  0  0  0  0  0  0  0  0  0  0
   12.0012    4.7976    0.0000 H   0  0  0  0  0  0  0  0  0  0  0  0
   12.0012    5.5947    0.0000 H   0  0  0  0  0  0  0  0  0  0  0  0
   11.0513   -4.7976    0.0000 H   0  0  0  0  0  0  0  0  0  0  0  0
   11.0513   -5.5947    0.0000 H   0  0  0  0  0  0  0  0  0  0  0  0
   10.5513    6.4607    0.0000 H   0  0  0  0  0  0  0  0  0  0  0  0
   10.5513    5.6636    0.0000 H   0  0  0  0  0  0  0  0  0  0  0  0
   12.5012   -6.4607    0.0000 H   0  0  0  0  0  0  0  0  0  0  0  0
   12.5012   -5.6636    0.0000 H   0  0  0  0  0  0  0  0  0  0  0  0
   12.8598   -0.4749    0.0000 H   0  0  0  0  0  0  0  0  0  0  0  0
   13.6569   -0.4749    0.0000 H   0  0  0  0  0  0  0  0  0  0  0  0
   10.1928    0.4749    0.0000 H   0  0  0  0  0  0  0  0  0  0  0  0
    9.3957    0.4749    0.0000 H   0  0  0  0  0  0  0  0  0  0  0  0
   12.0012    6.5297    0.0000 H   0  0  0  0  0  0  0  0  0  0  0  0
   12.0012    7.3267    0.0000 H   0  0  0  0  0  0  0  0  0  0  0  0
   11.0513   -6.5297    0.0000 H   0  0  0  0  0  0  0  0  0  0  0  0
   11.0513   -7.3267    0.0000 H   0  0  0  0  0  0  0  0  0  0  0  0
   10.5513    8.1928    0.0000 H   0  0  0  0  0  0  0  0  0  0  0  0
   10.5513    7.3957    0.0000 H   0  0  0  0  0  0  0  0  0  0  0  0
   12.5012   -8.1928    0.0000 H   0  0  0  0  0  0  0  0  0  0  0  0
   12.5012   -7.3957    0.0000 H   0  0  0  0  0  0  0  0  0  0  0  0
   12.0012    8.2617    0.0000 H   0  0  0  0  0  0  0  0  0  0  0  0
   12.0012    9.0588    0.0000 H   0  0  0  0  0  0  0  0  0  0  0  0
   11.0513   -8.2617    0.0000 H   0  0  0  0  0  0  0  0  0  0  0  0
   11.0513   -9.0588    0.0000 H   0  0  0  0  0  0  0  0  0  0  0  0
   10.5513    9.9248    0.0000 H   0  0  0  0  0  0  0  0  0  0  0  0
   10.5513    9.1278    0.0000 H   0  0  0  0  0  0  0  0  0  0  0  0
   12.5012   -9.9248    0.0000 H   0  0  0  0  0  0  0  0  0  0  0  0
   12.5012   -9.1278    0.0000 H   0  0  0  0  0  0  0  0  0  0  0  0
   17.9870    0.9749    0.0000 H   0  0  0  0  0  0  0  0  0  0  0  0
   17.1899    0.9749    0.0000 H   0  0  0  0  0  0  0  0  0  0  0  0
    5.0656   -0.9749    0.0000 H   0  0  0  0  0  0  0  0  0  0  0  0
    5.8626   -0.9749    0.0000 H   0  0  0  0  0  0  0  0  0  0  0  0
   16.3239   -0.4749    0.0000 H   0  0  0  0  0  0  0  0  0  0  0  0
   17.1210   -0.4749    0.0000 H   0  0  0  0  0  0  0  0  0  0  0  0
    6.7287    0.4749    0.0000 H   0  0  0  0  0  0  0  0  0  0  0  0
    5.9316    0.4749    0.0000 H   0  0  0  0  0  0  0  0  0  0  0  0
   18.0560   -0.4749    0.0000 H   0  0  0  0  0  0  0  0  0  0  0  0
   18.8530   -0.4749    0.0000 H   0  0  0  0  0  0  0  0  0  0  0  0
    4.9966    0.4749    0.0000 H   0  0  0  0  0  0  0  0  0  0  0  0
    4.1996    0.4749    0.0000 H   0  0  0  0  0  0  0  0  0  0  0  0
   16.2549    0.9749    0.0000 H   0  0  0  0  0  0  0  0  0  0  0  0
   15.4579    0.9749    0.0000 H   0  0  0  0  0  0  0  0  0  0  0  0
    6.7976   -0.9749    0.0000 H   0  0  0  0  0  0  0  0  0  0  0  0
    7.5947   -0.9749    0.0000 H   0  0  0  0  0  0  0  0  0  0  0  0
   19.7190    0.9749    0.0000 H   0  0  0  0  0  0  0  0  0  0  0  0
   18.9220    0.9749    0.0000 H   0  0  0  0  0  0  0  0  0  0  0  0
    3.3335   -0.9749    0.0000 H   0  0  0  0  0  0  0  0  0  0  0  0
    4.1306   -0.9749    0.0000 H   0  0  0  0  0  0  0  0  0  0  0  0
   19.6496   -0.3100    0.0000 H   0  0  0  0  0  0  0  0  0  0  0  0
    2.8660   -0.6200    0.0000 H   0  0  0  0  0  0  0  0  0  0  0  0
   12.0632   10.0823    0.0000 H   0  0  0  0  0  0  0  0  0  0  0  0
   11.8363   10.9292    0.0000 H   0  0  0  0  0  0  0  0  0  0  0  0
   10.9893   10.7023    0.0000 H   0  0  0  0  0  0  0  0  0  0  0  0
   10.9893  -10.0823    0.0000 H   0  0  0  0  0  0  0  0  0  0  0  0
   11.2163  -10.9292    0.0000 H   0  0  0  0  0  0  0  0  0  0  0  0
   12.0632  -10.7023    0.0000 H   0  0  0  0  0  0  0  0  0  0  0  0
   21.3626   -0.0369    0.0000 H   0  0  0  0  0  0  0  0  0  0  0  0
   21.5895    0.8100    0.0000 H   0  0  0  0  0  0  0  0  0  0  0  0
   20.7426    1.0369    0.0000 H   0  0  0  0  0  0  0  0  0  0  0  0
   19.5665   -1.0000    0.0000 H   0  0  0  0  0  0  0  0  0  0  0  0
   20.1865   -1.6200    0.0000 H   0  0  0  0  0  0  0  0  0  0  0  0
   20.8065   -1.0000    0.0000 H   0  0  0  0  0  0  0  0  0  0  0  0
    1.6900    0.0369    0.0000 H   0  0  0  0  0  0  0  0  0  0  0  0
    1.4631   -0.8100    0.0000 H   0  0  0  0  0  0  0  0  0  0  0  0
    2.3100   -1.0369    0.0000 H   0  0  0  0  0  0  0  0  0  0  0  0
    3.4860    1.0000    0.0000 H   0  0  0  0  0  0  0  0  0  0  0  0
    2.8660    1.6200    0.0000 H   0  0  0  0  0  0  0  0  0  0  0  0
    2.2460    1.0000    0.0000 H   0  0  0  0  0  0  0  0  0  0  0  0
  1  2  1  0  0  0  0
  1  3  1  0  0  0  0
  1  8  1  0  0  0  0
  1  9  1  0  0  0  0
  2 22  1  0  0  0  0
  3 23  1  0  0  0  0
  4 30  1  0  0  0  0
  4 40  1  0  0  0  0
  5 31  1  0  0  0  0
  5 41  1  0  0  0  0
  6 30  2  0  0  0  0
  7 31  2  0  0  0  0
  8 10  1  0  0  0  0
  8 52  1  0  0  0  0
  8 53  1  0  0  0  0
  9 11  1  0  0  0  0
  9 54  1  0  0  0  0
  9 55  1  0  0  0  0
 10 12  1  0  0  0  0
 10 56  1  0  0  0  0
 10 57  1  0  0  0  0
 11 13  1  0  0  0  0
 11 58  1  0  0  0  0
 11 59  1  0  0  0  0
 12 14  1  0  0  0  0
 12 60  1  0  0  0  0
 12 61  1  0  0  0  0
 13 15  1  0  0  0  0
 13 62  1  0  0  0  0
 13 63  1  0  0  0  0
 14 16  1  0  0  0  0
 14 64  1  0  0  0  0
 14 65  1  0  0  0  0
 15 17  1  0  0  0  0
 15 66  1  0  0  0  0
 15 67  1  0  0  0  0
 16 18  1  0  0  0  0
 16 68  1  0  0  0  0
 16 69  1  0  0  0  0
 17 19  1  0  0  0  0
 17 70  1  0  0  0  0
 17 71  1  0  0  0  0
 18 20  1  0  0  0  0
 18 72  1  0  0  0  0
 18 73  1  0  0  0  0
 19 21  1  0  0  0  0
 19 74  1  0  0  0  0
 19 75  1  0  0  0  0
 20 24  1  0  0  0  0
 20 76  1  0  0  0  0
 20 77  1  0  0  0  0
 21 25  1  0  0  0  0
 21 78  1  0  0  0  0
 21 79  1  0  0  0  0
 22 30  1  0  0  0  0
 22 80  1  0  0  0  0
 22 81  1  0  0  0  0
 23 31  1  0  0  0  0
 23 82  1  0  0  0  0
 23 83  1  0  0  0  0
 24 26  1  0  0  0  0
 24 84  1  0  0  0  0
 24 85  1  0  0  0  0
 25 27  1  0  0  0  0
 25 86  1  0  0  0  0
 25 87  1  0  0  0  0
 26 28  1  0  0  0  0
 26 88  1  0  0  0  0
 26 89  1  0  0  0  0
 27 29  1  0  0  0  0
 27 90  1  0  0  0  0
 27 91  1  0  0  0  0
 28 32  1  0  0  0  0
 28 92  1  0  0  0  0
 28 93  1  0  0  0  0
 29 33  1  0  0  0  0
 29 94  1  0  0  0  0
 29 95  1  0  0  0  0
 32 46  1  0  0  0  0
 32 96  1  0  0  0  0
 32 97  1  0  0  0  0
 33 47  1  0  0  0  0
 33 98  1  0  0  0  0
 33 99  1  0  0  0  0
 34 36  1  0  0  0  0
 34 38  1  0  0  0  0
 34100  1  0  0  0  0
 34101  1  0  0  0  0
 35 37  1  0  0  0  0
 35 39  1  0  0  0  0
 35102  1  0  0  0  0
 35103  1  0  0  0  0
 36 40  1  0  0  0  0
 36104  1  0  0  0  0
 36105  1  0  0  0  0
 37 41  1  0  0  0  0
 37106  1  0  0  0  0
 37107  1  0  0  0  0
 38 42  1  0  0  0  0
 38108  1  0  0  0  0
 38109  1  0  0  0  0
 39 43  1  0  0  0  0
 39110  1  0  0  0  0
 39111  1  0  0  0  0
 40112  1  0  0  0  0
 40113  1  0  0  0  0
 41114  1  0  0  0  0
 41115  1  0  0  0  0
 42 44  1  0  0  0  0
 42116  1  0  0  0  0
 42117  1  0  0  0  0
 43 45  1  0  0  0  0
 43118  1  0  0  0  0
 43119  1  0  0  0  0
 44 48  1  0  0  0  0
 44 49  1  0  0  0  0
 44120  1  0  0  0  0
 45 50  1  0  0  0  0
 45 51  1  0  0  0  0
 45121  1  0  0  0  0
 46122  1  0  0  0  0
 46123  1  0  0  0  0
 46124  1  0  0  0  0
 47125  1  0  0  0  0
 47126  1  0  0  0  0
 47127  1  0  0  0  0
 48128  1  0  0  0  0
 48129  1  0  0  0  0
 48130  1  0  0  0  0
 49131  1  0  0  0  0
 49132  1  0  0  0  0
 49133  1  0  0  0  0
 50134  1  0  0  0  0
 50135  1  0  0  0  0
 50136  1  0  0  0  0
 51137  1  0  0  0  0
 51138  1  0  0  0  0
 51139  1  0  0  0  0
M  END
> <PUBCHEM_COMPOUND_CID>
9577257

> <PUBCHEM_COMPOUND_CANONICALIZED>
1

> <PUBCHEM_CACTVS_COMPLEXITY>
701

> <PUBCHEM_CACTVS_HBOND_ACCEPTOR>
6

> <PUBCHEM_CACTVS_HBOND_DONOR>
0

> <PUBCHEM_CACTVS_ROTATABLE_BOND>
42

> <PUBCHEM_CACTVS_SUBSKEYS>
AAADcfB8OABgAAAAAACAAAAAAAAAAAAAAAAAAAAAAAAAAAAAAAAAGgQAAAAADQCkwAKCCAAABAAIAACQCAAAAAAAAAAAAAAAAAAAAAIAAAACAAAEAAAAAAGAwOAMAAAAAAAAAAAAAAAAAAAAAAAAAAAAAA==

> <PUBCHEM_IUPAC_OPENEYE_NAME>
6-methylheptyl 2-[didodecyl-[2-(6-methylheptoxy)-2-oxo-ethyl]sulfanyl-stannyl]sulfanylacetate

> <PUBCHEM_IUPAC_CAS_NAME>
2-[[didodecyl-[[2-(6-methylheptoxy)-2-oxoethyl]thio]stannyl]thio]acetic acid 6-methylheptyl ester

> <PUBCHEM_IUPAC_NAME_MARKUP>
6-methylheptyl 2-[didodecyl-[2-(6-methylheptoxy)-2-oxoethyl]sulfanylstannyl]sulfanylacetate

> <PUBCHEM_IUPAC_NAME>
6-methylheptyl 2-[didodecyl-[2-(6-methylheptoxy)-2-oxoethyl]sulfanylstannyl]sulfanylacetate

> <PUBCHEM_IUPAC_SYSTEMATIC_NAME>
6-methylheptyl 2-[didodecyl-[2-(6-methylheptoxy)-2-oxidanylidene-ethyl]sulfanyl-stannyl]sulfanylethanoate

> <PUBCHEM_IUPAC_TRADITIONAL_NAME>
2-[[[[2-keto-2-(6-methylheptoxy)ethyl]thio]-dilauryl-stannyl]thio]acetic acid 6-methylheptyl ester

> <PUBCHEM_IUPAC_INCHI>
InChI=1S/2C12H25.2C10H20O2S.Sn/c2*1-3-5-7-9-11-12-10-8-6-4-2;2*1-9(2)6-4-3-5-7-12-10(11)8-13;/h2*1,3-12H2,2H3;2*9,13H,3-8H2,1-2H3;/q;;;;+2/p-2

> <PUBCHEM_IUPAC_INCHIKEY>
YYUCEVXCMMVFLI-UHFFFAOYSA-L

> <PUBCHEM_EXACT_MASS>
864.514606

> <PUBCHEM_MOLECULAR_FORMULA>
C44H88O4S2Sn

> <PUBCHEM_MOLECULAR_WEIGHT>
864.0

> <PUBCHEM_SMILES>
CCCCCCCCCCCC[Sn](CCCCCCCCCCCC)(SCC(=O)OCCCCCC(C)C)SCC(=O)OCCCCCC(C)C

> <PUBCHEM_OPENEYE_CAN_SMILES>
CCCCCCCCCCCC[Sn](CCCCCCCCCCCC)(SCC(=O)OCCCCCC(C)C)SCC(=O)OCCCCCC(C)C

> <PUBCHEM_OPENEYE_ISO_SMILES>
CCCCCCCCCCCC[Sn](CCCCCCCCCCCC)(SCC(=O)OCCCCCC(C)C)SCC(=O)OCCCCCC(C)C

> <PUBCHEM_CACTVS_TPSA>
103

> <PUBCHEM_MONOISOTOPIC_WEIGHT>
864.514606

> <PUBCHEM_TOTAL_CHARGE>
0

> <PUBCHEM_HEAVY_ATOM_COUNT>
51

> <PUBCHEM_ATOM_DEF_STEREO_COUNT>
0

> <PUBCHEM_ATOM_UDEF_STEREO_COUNT>
0

> <PUBCHEM_BOND_DEF_STEREO_COUNT>
0

> <PUBCHEM_BOND_UDEF_STEREO_COUNT>
0

> <PUBCHEM_ISOTOPIC_ATOM_COUNT>
0

> <PUBCHEM_COMPONENT_COUNT>
1

> <PUBCHEM_CACTVS_TAUTO_COUNT>
-1

> <PUBCHEM_COORDINATE_TYPE>
1
5
255

$$$$
