9809915
  -OEChem-04042506012D

123122  0     0  0  0  0  0  0999 V2000
   17.5885    0.0000    0.0000 O   0  0  0  0  0  0  0  0  0  0  0  0
   14.1244    0.0000    0.0000 O   0  0  0  0  0  0  0  0  0  0  0  0
   15.8564    1.7320    0.0000 O   0  0  0  0  0  0  0  0  0  0  0  0
   15.8564   -1.7320    0.0000 O   0  0  0  0  0  0  0  0  0  0  0  0
   18.4545    1.5000    0.0000 O   0  0  0  0  0  0  0  0  0  0  0  0
   13.2583   -1.5000    0.0000 O   0  0  0  0  0  0  0  0  0  0  0  0
   15.8564    0.0000    0.0000 C   0  0  0  0  0  0  0  0  0  0  0  0
   16.7224    0.5000    0.0000 C   0  0  0  0  0  0  0  0  0  0  0  0
   14.9904   -0.5000    0.0000 C   0  0  0  0  0  0  0  0  0  0  0  0
   15.3564    0.8660    0.0000 C   0  0  0  0  0  0  0  0  0  0  0  0
   16.3564   -0.8660    0.0000 C   0  0  0  0  0  0  0  0  0  0  0  0
   21.0526    0.0000    0.0000 C   0  0  0  0  0  0  0  0  0  0  0  0
   10.6603    0.0000    0.0000 C   0  0  0  0  0  0  0  0  0  0  0  0
   21.9186    0.5000    0.0000 C   0  0  0  0  0  0  0  0  0  0  0  0
    9.7942   -0.5000    0.0000 C   0  0  0  0  0  0  0  0  0  0  0  0
   20.1865    0.5000    0.0000 C   0  0  0  0  0  0  0  0  0  0  0  0
   11.5263   -0.5000    0.0000 C   0  0  0  0  0  0  0  0  0  0  0  0
   22.7846    0.0000    0.0000 C   0  0  0  0  0  0  0  0  0  0  0  0
    8.9282    0.0000    0.0000 C   0  0  0  0  0  0  0  0  0  0  0  0
   19.3205    0.0000    0.0000 C   0  0  0  0  0  0  0  0  0  0  0  0
   12.3923    0.0000    0.0000 C   0  0  0  0  0  0  0  0  0  0  0  0
   23.6506    0.5000    0.0000 C   0  0  0  0  0  0  0  0  0  0  0  0
    8.0622   -0.5000    0.0000 C   0  0  0  0  0  0  0  0  0  0  0  0
   18.4545    0.5000    0.0000 C   0  0  0  0  0  0  0  0  0  0  0  0
   13.2583   -0.5000    0.0000 C   0  0  0  0  0  0  0  0  0  0  0  0
   27.1147   -2.5000    0.0000 C   0  0  0  0  0  0  0  0  0  0  0  0
    4.5981    2.5000    0.0000 C   0  0  0  0  0  0  0  0  0  0  0  0
   27.9808   -3.0000    0.0000 C   0  0  0  0  0  0  0  0  0  0  0  0
    3.7320    3.0000    0.0000 C   0  0  0  0  0  0  0  0  0  0  0  0
   24.5167    0.0000    0.0000 C   0  0  0  0  0  0  0  0  0  0  0  0
    7.1962    0.0000    0.0000 C   0  0  0  0  0  0  0  0  0  0  0  0
   27.1147   -1.5000    0.0000 C   0  0  0  0  0  0  0  0  0  0  0  0
    4.5981    1.5000    0.0000 C   0  0  0  0  0  0  0  0  0  0  0  0
   27.9808   -4.0000    0.0000 C   0  0  0  0  0  0  0  0  0  0  0  0
    3.7320    4.0000    0.0000 C   0  0  0  0  0  0  0  0  0  0  0  0
   26.2487   -1.0000    0.0000 C   0  0  0  0  0  0  0  0  0  0  0  0
    5.4641    1.0000    0.0000 C   0  0  0  0  0  0  0  0  0  0  0  0
   28.8468   -4.5000    0.0000 C   0  0  0  0  0  0  0  0  0  0  0  0
    2.8660    4.5000    0.0000 C   0  0  0  0  0  0  0  0  0  0  0  0
   25.3827    0.5000    0.0000 C   0  0  0  0  0  0  0  0  0  0  0  0
    6.3301   -0.5000    0.0000 C   0  0  0  0  0  0  0  0  0  0  0  0
   26.2487    0.0000    0.0000 C   0  0  0  0  0  0  0  0  0  0  0  0
    5.4641    0.0000    0.0000 C   0  0  0  0  0  0  0  0  0  0  0  0
   28.8468   -5.5000    0.0000 C   0  0  0  0  0  0  0  0  0  0  0  0
    2.8660    5.5000    0.0000 C   0  0  0  0  0  0  0  0  0  0  0  0
   29.7128   -6.0000    0.0000 C   0  0  0  0  0  0  0  0  0  0  0  0
    2.0000    6.0000    0.0000 C   0  0  0  0  0  0  0  0  0  0  0  0
   17.1210    0.9749    0.0000 H   0  0  0  0  0  0  0  0  0  0  0  0
   16.3239    0.9749    0.0000 H   0  0  0  0  0  0  0  0  0  0  0  0
   14.5919   -0.9749    0.0000 H   0  0  0  0  0  0  0  0  0  0  0  0
   15.3889   -0.9749    0.0000 H   0  0  0  0  0  0  0  0  0  0  0  0
   14.8815    1.2646    0.0000 H   0  0  0  0  0  0  0  0  0  0  0  0
   14.8815    0.4675    0.0000 H   0  0  0  0  0  0  0  0  0  0  0  0
   16.8314   -1.2646    0.0000 H   0  0  0  0  0  0  0  0  0  0  0  0
   16.8314   -0.4675    0.0000 H   0  0  0  0  0  0  0  0  0  0  0  0
   20.6540   -0.4749    0.0000 H   0  0  0  0  0  0  0  0  0  0  0  0
   21.4511   -0.4749    0.0000 H   0  0  0  0  0  0  0  0  0  0  0  0
   11.0588    0.4749    0.0000 H   0  0  0  0  0  0  0  0  0  0  0  0
   10.2617    0.4749    0.0000 H   0  0  0  0  0  0  0  0  0  0  0  0
   22.3171    0.9749    0.0000 H   0  0  0  0  0  0  0  0  0  0  0  0
   21.5201    0.9749    0.0000 H   0  0  0  0  0  0  0  0  0  0  0  0
    9.3957   -0.9749    0.0000 H   0  0  0  0  0  0  0  0  0  0  0  0
   10.1928   -0.9749    0.0000 H   0  0  0  0  0  0  0  0  0  0  0  0
   20.5851    0.9749    0.0000 H   0  0  0  0  0  0  0  0  0  0  0  0
   19.7880    0.9749    0.0000 H   0  0  0  0  0  0  0  0  0  0  0  0
   11.1278   -0.9749    0.0000 H   0  0  0  0  0  0  0  0  0  0  0  0
   11.9248   -0.9749    0.0000 H   0  0  0  0  0  0  0  0  0  0  0  0
   22.3861   -0.4749    0.0000 H   0  0  0  0  0  0  0  0  0  0  0  0
   23.1831   -0.4749    0.0000 H   0  0  0  0  0  0  0  0  0  0  0  0
    9.3267    0.4749    0.0000 H   0  0  0  0  0  0  0  0  0  0  0  0
    8.5297    0.4749    0.0000 H   0  0  0  0  0  0  0  0  0  0  0  0
   18.9220   -0.4749    0.0000 H   0  0  0  0  0  0  0  0  0  0  0  0
   19.7190   -0.4749    0.0000 H   0  0  0  0  0  0  0  0  0  0  0  0
   12.7908    0.4749    0.0000 H   0  0  0  0  0  0  0  0  0  0  0  0
   11.9938    0.4749    0.0000 H   0  0  0  0  0  0  0  0  0  0  0  0
   24.0492    0.9749    0.0000 H   0  0  0  0  0  0  0  0  0  0  0  0
   23.2521    0.9749    0.0000 H   0  0  0  0  0  0  0  0  0  0  0  0
    7.6636   -0.9749    0.0000 H   0  0  0  0  0  0  0  0  0  0  0  0
    8.4607   -0.9749    0.0000 H   0  0  0  0  0  0  0  0  0  0  0  0
   26.5042   -2.3923    0.0000 H   0  0  0  0  0  0  0  0  0  0  0  0
   26.9027   -3.0826    0.0000 H   0  0  0  0  0  0  0  0  0  0  0  0
    5.2087    2.3923    0.0000 H   0  0  0  0  0  0  0  0  0  0  0  0
    4.8101    3.0826    0.0000 H   0  0  0  0  0  0  0  0  0  0  0  0
   28.5913   -3.1077    0.0000 H   0  0  0  0  0  0  0  0  0  0  0  0
   28.1928   -2.4174    0.0000 H   0  0  0  0  0  0  0  0  0  0  0  0
    3.1215    3.1077    0.0000 H   0  0  0  0  0  0  0  0  0  0  0  0
    3.5200    2.4174    0.0000 H   0  0  0  0  0  0  0  0  0  0  0  0
   15.5464    2.2690    0.0000 H   0  0  0  0  0  0  0  0  0  0  0  0
   16.1664   -2.2690    0.0000 H   0  0  0  0  0  0  0  0  0  0  0  0
   24.1181   -0.4749    0.0000 H   0  0  0  0  0  0  0  0  0  0  0  0
   24.9152   -0.4749    0.0000 H   0  0  0  0  0  0  0  0  0  0  0  0
    7.5947    0.4749    0.0000 H   0  0  0  0  0  0  0  0  0  0  0  0
    6.7976    0.4749    0.0000 H   0  0  0  0  0  0  0  0  0  0  0  0
   27.7253   -1.6077    0.0000 H   0  0  0  0  0  0  0  0  0  0  0  0
   27.3268   -0.9174    0.0000 H   0  0  0  0  0  0  0  0  0  0  0  0
    3.9875    1.6077    0.0000 H   0  0  0  0  0  0  0  0  0  0  0  0
    4.3860    0.9174    0.0000 H   0  0  0  0  0  0  0  0  0  0  0  0
   27.3702   -3.8923    0.0000 H   0  0  0  0  0  0  0  0  0  0  0  0
   27.7687   -4.5826    0.0000 H   0  0  0  0  0  0  0  0  0  0  0  0
    4.3426    3.8923    0.0000 H   0  0  0  0  0  0  0  0  0  0  0  0
    3.9441    4.5826    0.0000 H   0  0  0  0  0  0  0  0  0  0  0  0
   25.6381   -0.8923    0.0000 H   0  0  0  0  0  0  0  0  0  0  0  0
   26.0367   -1.5826    0.0000 H   0  0  0  0  0  0  0  0  0  0  0  0
    6.0747    0.8923    0.0000 H   0  0  0  0  0  0  0  0  0  0  0  0
    5.6762    1.5826    0.0000 H   0  0  0  0  0  0  0  0  0  0  0  0
   29.4574   -4.6077    0.0000 H   0  0  0  0  0  0  0  0  0  0  0  0
   29.0588   -3.9174    0.0000 H   0  0  0  0  0  0  0  0  0  0  0  0
    2.2554    4.6077    0.0000 H   0  0  0  0  0  0  0  0  0  0  0  0
    2.6540    3.9174    0.0000 H   0  0  0  0  0  0  0  0  0  0  0  0
   25.3827    1.1200    0.0000 H   0  0  0  0  0  0  0  0  0  0  0  0
    6.3301   -1.1200    0.0000 H   0  0  0  0  0  0  0  0  0  0  0  0
   26.7856    0.3100    0.0000 H   0  0  0  0  0  0  0  0  0  0  0  0
    4.9272   -0.3100    0.0000 H   0  0  0  0  0  0  0  0  0  0  0  0
   28.2362   -5.3923    0.0000 H   0  0  0  0  0  0  0  0  0  0  0  0
   28.6347   -6.0826    0.0000 H   0  0  0  0  0  0  0  0  0  0  0  0
    3.4766    5.3923    0.0000 H   0  0  0  0  0  0  0  0  0  0  0  0
    3.0781    6.0826    0.0000 H   0  0  0  0  0  0  0  0  0  0  0  0
   29.4028   -6.5369    0.0000 H   0  0  0  0  0  0  0  0  0  0  0  0
   30.2497   -6.3100    0.0000 H   0  0  0  0  0  0  0  0  0  0  0  0
   30.0228   -5.4631    0.0000 H   0  0  0  0  0  0  0  0  0  0  0  0
    2.3100    6.5369    0.0000 H   0  0  0  0  0  0  0  0  0  0  0  0
    1.4631    6.3100    0.0000 H   0  0  0  0  0  0  0  0  0  0  0  0
    1.6900    5.4631    0.0000 H   0  0  0  0  0  0  0  0  0  0  0  0
  1  8  1  0  0  0  0
  1 24  1  0  0  0  0
  2  9  1  0  0  0  0
  2 25  1  0  0  0  0
  3 10  1  0  0  0  0
  3 88  1  0  0  0  0
  4 11  1  0  0  0  0
  4 89  1  0  0  0  0
  5 24  2  0  0  0  0
  6 25  2  0  0  0  0
  7  8  1  0  0  0  0
  7  9  1  0  0  0  0
  7 10  1  0  0  0  0
  7 11  1  0  0  0  0
  8 48  1  0  0  0  0
  8 49  1  0  0  0  0
  9 50  1  0  0  0  0
  9 51  1  0  0  0  0
 10 52  1  0  0  0  0
 10 53  1  0  0  0  0
 11 54  1  0  0  0  0
 11 55  1  0  0  0  0
 12 14  1  0  0  0  0
 12 16  1  0  0  0  0
 12 56  1  0  0  0  0
 12 57  1  0  0  0  0
 13 15  1  0  0  0  0
 13 17  1  0  0  0  0
 13 58  1  0  0  0  0
 13 59  1  0  0  0  0
 14 18  1  0  0  0  0
 14 60  1  0  0  0  0
 14 61  1  0  0  0  0
 15 19  1  0  0  0  0
 15 62  1  0  0  0  0
 15 63  1  0  0  0  0
 16 20  1  0  0  0  0
 16 64  1  0  0  0  0
 16 65  1  0  0  0  0
 17 21  1  0  0  0  0
 17 66  1  0  0  0  0
 17 67  1  0  0  0  0
 18 22  1  0  0  0  0
 18 68  1  0  0  0  0
 18 69  1  0  0  0  0
 19 23  1  0  0  0  0
 19 70  1  0  0  0  0
 19 71  1  0  0  0  0
 20 24  1  0  0  0  0
 20 72  1  0  0  0  0
 20 73  1  0  0  0  0
 21 25  1  0  0  0  0
 21 74  1  0  0  0  0
 21 75  1  0  0  0  0
 22 30  1  0  0  0  0
 22 76  1  0  0  0  0
 22 77  1  0  0  0  0
 23 31  1  0  0  0  0
 23 78  1  0  0  0  0
 23 79  1  0  0  0  0
 26 28  1  0  0  0  0
 26 32  1  0  0  0  0
 26 80  1  0  0  0  0
 26 81  1  0  0  0  0
 27 29  1  0  0  0  0
 27 33  1  0  0  0  0
 27 82  1  0  0  0  0
 27 83  1  0  0  0  0
 28 34  1  0  0  0  0
 28 84  1  0  0  0  0
 28 85  1  0  0  0  0
 29 35  1  0  0  0  0
 29 86  1  0  0  0  0
 29 87  1  0  0  0  0
 30 40  1  0  0  0  0
 30 90  1  0  0  0  0
 30 91  1  0  0  0  0
 31 41  1  0  0  0  0
 31 92  1  0  0  0  0
 31 93  1  0  0  0  0
 32 36  1  0  0  0  0
 32 94  1  0  0  0  0
 32 95  1  0  0  0  0
 33 37  1  0  0  0  0
 33 96  1  0  0  0  0
 33 97  1  0  0  0  0
 34 38  1  0  0  0  0
 34 98  1  0  0  0  0
 34 99  1  0  0  0  0
 35 39  1  0  0  0  0
 35100  1  0  0  0  0
 35101  1  0  0  0  0
 36 42  1  0  0  0  0
 36102  1  0  0  0  0
 36103  1  0  0  0  0
 37 43  1  0  0  0  0
 37104  1  0  0  0  0
 37105  1  0  0  0  0
 38 44  1  0  0  0  0
 38106  1  0  0  0  0
 38107  1  0  0  0  0
 39 45  1  0  0  0  0
 39108  1  0  0  0  0
 39109  1  0  0  0  0
 40 42  2  0  0  0  0
 40110  1  0  0  0  0
 41 43  2  0  0  0  0
 41111  1  0  0  0  0
 42112  1  0  0  0  0
 43113  1  0  0  0  0
 44 46  1  0  0  0  0
 44114  1  0  0  0  0
 44115  1  0  0  0  0
 45 47  1  0  0  0  0
 45116  1  0  0  0  0
 45117  1  0  0  0  0
 46118  1  0  0  0  0
 46119  1  0  0  0  0
 46120  1  0  0  0  0
 47121  1  0  0  0  0
 47122  1  0  0  0  0
 47123  1  0  0  0  0
M  END
> <PUBCHEM_COMPOUND_CID>
9809915

> <PUBCHEM_COMPOUND_CANONICALIZED>
1

> <PUBCHEM_CACTVS_COMPLEXITY>
684

> <PUBCHEM_CACTVS_HBOND_ACCEPTOR>
6

> <PUBCHEM_CACTVS_HBOND_DONOR>
2

> <PUBCHEM_CACTVS_ROTATABLE_BOND>
38

> <PUBCHEM_CACTVS_SUBSKEYS>
AAADcfB8OAAAAAAAAAAAAAAAAAAAAAAAAAAAAAAAAAAAAAAAAAAAGgAACAAADgCggAICCAAABgCIACDSCAAAAAAgAAAICAEAAAgAEBIAAQACQAAFgAAIAAOIyKCAAAAAAAAAAAAAAAAAAAAAAAAAAAAAAA==

> <PUBCHEM_IUPAC_OPENEYE_NAME>
[2,2-bis(hydroxymethyl)-3-[(Z)-octadec-9-enoyl]oxy-propyl] (Z)-octadec-9-enoate

> <PUBCHEM_IUPAC_CAS_NAME>
(Z)-9-octadecenoic acid [2,2-bis(hydroxymethyl)-3-[(Z)-1-oxooctadec-9-enoxy]propyl] ester

> <PUBCHEM_IUPAC_NAME_MARKUP>
[2,2-bis(hydroxymethyl)-3-[(<I>Z</I>)-octadec-9-enoyl]oxypropyl] (<I>Z</I>)-octadec-9-enoate

> <PUBCHEM_IUPAC_NAME>
[2,2-bis(hydroxymethyl)-3-[(Z)-octadec-9-enoyl]oxypropyl] (Z)-octadec-9-enoate

> <PUBCHEM_IUPAC_SYSTEMATIC_NAME>
[2,2-bis(hydroxymethyl)-3-[(Z)-octadec-9-enoyl]oxy-propyl] (Z)-octadec-9-enoate

> <PUBCHEM_IUPAC_TRADITIONAL_NAME>
(Z)-octadec-9-enoic acid [2,2-dimethylol-3-[(Z)-octadec-9-enoyl]oxy-propyl] ester

> <PUBCHEM_IUPAC_INCHI>
InChI=1S/C41H76O6/c1-3-5-7-9-11-13-15-17-19-21-23-25-27-29-31-33-39(44)46-37-41(35-42,36-43)38-47-40(45)34-32-30-28-26-24-22-20-18-16-14-12-10-8-6-4-2/h17-20,42-43H,3-16,21-38H2,1-2H3/b19-17-,20-18-

> <PUBCHEM_IUPAC_INCHIKEY>
BJXXCOMGRRCAGN-CLFAGFIQSA-N

> <PUBCHEM_XLOGP3_AA>
13.7

> <PUBCHEM_EXACT_MASS>
664.56419014

> <PUBCHEM_MOLECULAR_FORMULA>
C41H76O6

> <PUBCHEM_MOLECULAR_WEIGHT>
665.0

> <PUBCHEM_SMILES>
CCCCCCCC/C=C\CCCCCCCC(=O)OCC(COC(=O)CCCCCCC/C=C\CCCCCCCC)(CO)CO

> <PUBCHEM_OPENEYE_CAN_SMILES>
CCCCCCCCC=CCCCCCCCC(=O)OCC(CO)(CO)COC(=O)CCCCCCCC=CCCCCCCCC

> <PUBCHEM_OPENEYE_ISO_SMILES>
CCCCCCCC/C=C\CCCCCCCC(=O)OCC(COC(=O)CCCCCCC/C=C\CCCCCCCC)(CO)CO

> <PUBCHEM_CACTVS_TPSA>
93.1

> <PUBCHEM_MONOISOTOPIC_WEIGHT>
664.56419014

> <PUBCHEM_TOTAL_CHARGE>
0

> <PUBCHEM_HEAVY_ATOM_COUNT>
47

> <PUBCHEM_ATOM_DEF_STEREO_COUNT>
0

> <PUBCHEM_ATOM_UDEF_STEREO_COUNT>
0

> <PUBCHEM_BOND_DEF_STEREO_COUNT>
2

> <PUBCHEM_BOND_UDEF_STEREO_COUNT>
0

> <PUBCHEM_ISOTOPIC_ATOM_COUNT>
0

> <PUBCHEM_COMPONENT_COUNT>
1

> <PUBCHEM_CACTVS_TAUTO_COUNT>
-1

> <PUBCHEM_COORDINATE_TYPE>
1
5
255

$$$$
