9828350
  -OEChem-03192510052D

 93 92  0     0  0  0  0  0  0999 V2000
   12.3923   -3.3301    0.0000 O   0  0  0  0  0  0  0  0  0  0  0  0
   11.1603   -4.1962    0.0000 O   0  0  0  0  0  0  0  0  0  0  0  0
    8.9282   -5.3301    0.0000 O   0  0  0  0  0  0  0  0  0  0  0  0
    8.6602   -1.5981    0.0000 O   0  0  0  0  0  0  0  0  0  0  0  0
   11.5263   -1.8301    0.0000 O   0  0  0  0  0  0  0  0  0  0  0  0
   10.6603   -5.3301    0.0000 O   0  0  0  0  0  0  0  0  0  0  0  0
    8.6602   -3.3301    0.0000 O   0  0  0  0  0  0  0  0  0  0  0  0
   10.6603   -3.3301    0.0000 C   0  0  0  0  0  0  0  0  0  0  0  0
   15.8564   -3.3301    0.0000 C   0  0  0  0  0  0  0  0  0  0  0  0
   14.9904   -2.8301    0.0000 C   0  0  0  0  0  0  0  0  0  0  0  0
   16.7224   -2.8301    0.0000 C   0  0  0  0  0  0  0  0  0  0  0  0
    5.4641   -5.3301    0.0000 C   0  0  0  0  0  0  0  0  0  0  0  0
    8.6602    1.8660    0.0000 C   0  0  0  0  0  0  0  0  0  0  0  0
    6.3301   -4.8301    0.0000 C   0  0  0  0  0  0  0  0  0  0  0  0
    9.1602    1.0000    0.0000 C   0  0  0  0  0  0  0  0  0  0  0  0
   14.1244   -3.3301    0.0000 C   0  0  0  0  0  0  0  0  0  0  0  0
    4.5981   -4.8301    0.0000 C   0  0  0  0  0  0  0  0  0  0  0  0
    9.1602    2.7320    0.0000 C   0  0  0  0  0  0  0  0  0  0  0  0
    9.7942   -3.8301    0.0000 C   0  0  0  0  0  0  0  0  0  0  0  0
   10.1603   -2.4641    0.0000 C   0  0  0  0  0  0  0  0  0  0  0  0
    7.1962   -5.3301    0.0000 C   0  0  0  0  0  0  0  0  0  0  0  0
    8.6602    0.1340    0.0000 C   0  0  0  0  0  0  0  0  0  0  0  0
   17.5885   -3.3301    0.0000 C   0  0  0  0  0  0  0  0  0  0  0  0
    3.7320   -5.3301    0.0000 C   0  0  0  0  0  0  0  0  0  0  0  0
    8.6602    3.5981    0.0000 C   0  0  0  0  0  0  0  0  0  0  0  0
   13.2583   -2.8301    0.0000 C   0  0  0  0  0  0  0  0  0  0  0  0
   11.5263   -2.8301    0.0000 C   0  0  0  0  0  0  0  0  0  0  0  0
    8.0622   -4.8301    0.0000 C   0  0  0  0  0  0  0  0  0  0  0  0
    9.1602   -0.7321    0.0000 C   0  0  0  0  0  0  0  0  0  0  0  0
   18.4545   -2.8301    0.0000 C   0  0  0  0  0  0  0  0  0  0  0  0
    2.8660   -4.8301    0.0000 C   0  0  0  0  0  0  0  0  0  0  0  0
    9.1602    4.4641    0.0000 C   0  0  0  0  0  0  0  0  0  0  0  0
    9.7942   -4.8301    0.0000 C   0  0  0  0  0  0  0  0  0  0  0  0
    9.1602   -2.4641    0.0000 C   0  0  0  0  0  0  0  0  0  0  0  0
   19.3205   -3.3301    0.0000 C   0  0  0  0  0  0  0  0  0  0  0  0
    2.0000   -5.3301    0.0000 C   0  0  0  0  0  0  0  0  0  0  0  0
    8.6602    5.3301    0.0000 C   0  0  0  0  0  0  0  0  0  0  0  0
   15.4579   -3.8051    0.0000 H   0  0  0  0  0  0  0  0  0  0  0  0
   16.2549   -3.8051    0.0000 H   0  0  0  0  0  0  0  0  0  0  0  0
   15.3889   -2.3552    0.0000 H   0  0  0  0  0  0  0  0  0  0  0  0
   14.5919   -2.3552    0.0000 H   0  0  0  0  0  0  0  0  0  0  0  0
   17.1210   -2.3552    0.0000 H   0  0  0  0  0  0  0  0  0  0  0  0
   16.3239   -2.3552    0.0000 H   0  0  0  0  0  0  0  0  0  0  0  0
    5.0656   -5.8051    0.0000 H   0  0  0  0  0  0  0  0  0  0  0  0
    5.8626   -5.8051    0.0000 H   0  0  0  0  0  0  0  0  0  0  0  0
    8.1853    2.2646    0.0000 H   0  0  0  0  0  0  0  0  0  0  0  0
    8.1853    1.4675    0.0000 H   0  0  0  0  0  0  0  0  0  0  0  0
    6.7287   -4.3552    0.0000 H   0  0  0  0  0  0  0  0  0  0  0  0
    5.9316   -4.3552    0.0000 H   0  0  0  0  0  0  0  0  0  0  0  0
    9.6352    0.6015    0.0000 H   0  0  0  0  0  0  0  0  0  0  0  0
    9.6352    1.3985    0.0000 H   0  0  0  0  0  0  0  0  0  0  0  0
   13.7258   -3.8051    0.0000 H   0  0  0  0  0  0  0  0  0  0  0  0
   14.5229   -3.8051    0.0000 H   0  0  0  0  0  0  0  0  0  0  0  0
    4.9966   -4.3552    0.0000 H   0  0  0  0  0  0  0  0  0  0  0  0
    4.1996   -4.3552    0.0000 H   0  0  0  0  0  0  0  0  0  0  0  0
    9.6352    2.3335    0.0000 H   0  0  0  0  0  0  0  0  0  0  0  0
    9.6352    3.1306    0.0000 H   0  0  0  0  0  0  0  0  0  0  0  0
    9.5822   -3.2475    0.0000 H   0  0  0  0  0  0  0  0  0  0  0  0
    9.1836   -3.9378    0.0000 H   0  0  0  0  0  0  0  0  0  0  0  0
   10.7429   -2.2520    0.0000 H   0  0  0  0  0  0  0  0  0  0  0  0
   10.0526   -1.8535    0.0000 H   0  0  0  0  0  0  0  0  0  0  0  0
    6.7976   -5.8051    0.0000 H   0  0  0  0  0  0  0  0  0  0  0  0
    7.5947   -5.8051    0.0000 H   0  0  0  0  0  0  0  0  0  0  0  0
    8.1853    0.5325    0.0000 H   0  0  0  0  0  0  0  0  0  0  0  0
    8.1853   -0.2646    0.0000 H   0  0  0  0  0  0  0  0  0  0  0  0
   17.1899   -3.8051    0.0000 H   0  0  0  0  0  0  0  0  0  0  0  0
   17.9870   -3.8051    0.0000 H   0  0  0  0  0  0  0  0  0  0  0  0
    3.3335   -5.8051    0.0000 H   0  0  0  0  0  0  0  0  0  0  0  0
    4.1306   -5.8051    0.0000 H   0  0  0  0  0  0  0  0  0  0  0  0
    8.1853    3.9966    0.0000 H   0  0  0  0  0  0  0  0  0  0  0  0
    8.1853    3.1996    0.0000 H   0  0  0  0  0  0  0  0  0  0  0  0
   13.6569   -2.3552    0.0000 H   0  0  0  0  0  0  0  0  0  0  0  0
   12.8598   -2.3552    0.0000 H   0  0  0  0  0  0  0  0  0  0  0  0
    8.4607   -4.3552    0.0000 H   0  0  0  0  0  0  0  0  0  0  0  0
    7.6636   -4.3552    0.0000 H   0  0  0  0  0  0  0  0  0  0  0  0
    9.6352   -1.1306    0.0000 H   0  0  0  0  0  0  0  0  0  0  0  0
    9.6352   -0.3335    0.0000 H   0  0  0  0  0  0  0  0  0  0  0  0
   18.8530   -2.3552    0.0000 H   0  0  0  0  0  0  0  0  0  0  0  0
   18.0560   -2.3552    0.0000 H   0  0  0  0  0  0  0  0  0  0  0  0
    3.2646   -4.3552    0.0000 H   0  0  0  0  0  0  0  0  0  0  0  0
    2.4675   -4.3552    0.0000 H   0  0  0  0  0  0  0  0  0  0  0  0
    9.6352    4.0656    0.0000 H   0  0  0  0  0  0  0  0  0  0  0  0
    9.6352    4.8626    0.0000 H   0  0  0  0  0  0  0  0  0  0  0  0
   10.8503   -4.7331    0.0000 H   0  0  0  0  0  0  0  0  0  0  0  0
   19.0105   -3.8671    0.0000 H   0  0  0  0  0  0  0  0  0  0  0  0
   19.8574   -3.6401    0.0000 H   0  0  0  0  0  0  0  0  0  0  0  0
   19.6305   -2.7932    0.0000 H   0  0  0  0  0  0  0  0  0  0  0  0
    1.6900   -4.7932    0.0000 H   0  0  0  0  0  0  0  0  0  0  0  0
    1.4631   -5.6401    0.0000 H   0  0  0  0  0  0  0  0  0  0  0  0
    2.3100   -5.8671    0.0000 H   0  0  0  0  0  0  0  0  0  0  0  0
    9.1972    5.6401    0.0000 H   0  0  0  0  0  0  0  0  0  0  0  0
    8.3503    5.8671    0.0000 H   0  0  0  0  0  0  0  0  0  0  0  0
    8.1233    5.0201    0.0000 H   0  0  0  0  0  0  0  0  0  0  0  0
  1 26  1  0  0  0  0
  1 27  1  0  0  0  0
  2  8  1  0  0  0  0
  2 84  1  0  0  0  0
  3 28  1  0  0  0  0
  3 33  1  0  0  0  0
  4 29  1  0  0  0  0
  4 34  1  0  0  0  0
  5 27  2  0  0  0  0
  6 33  2  0  0  0  0
  7 34  2  0  0  0  0
  8 19  1  0  0  0  0
  8 20  1  0  0  0  0
  8 27  1  0  0  0  0
  9 10  1  0  0  0  0
  9 11  1  0  0  0  0
  9 38  1  0  0  0  0
  9 39  1  0  0  0  0
 10 16  1  0  0  0  0
 10 40  1  0  0  0  0
 10 41  1  0  0  0  0
 11 23  1  0  0  0  0
 11 42  1  0  0  0  0
 11 43  1  0  0  0  0
 12 14  1  0  0  0  0
 12 17  1  0  0  0  0
 12 44  1  0  0  0  0
 12 45  1  0  0  0  0
 13 15  1  0  0  0  0
 13 18  1  0  0  0  0
 13 46  1  0  0  0  0
 13 47  1  0  0  0  0
 14 21  1  0  0  0  0
 14 48  1  0  0  0  0
 14 49  1  0  0  0  0
 15 22  1  0  0  0  0
 15 50  1  0  0  0  0
 15 51  1  0  0  0  0
 16 26  1  0  0  0  0
 16 52  1  0  0  0  0
 16 53  1  0  0  0  0
 17 24  1  0  0  0  0
 17 54  1  0  0  0  0
 17 55  1  0  0  0  0
 18 25  1  0  0  0  0
 18 56  1  0  0  0  0
 18 57  1  0  0  0  0
 19 33  1  0  0  0  0
 19 58  1  0  0  0  0
 19 59  1  0  0  0  0
 20 34  1  0  0  0  0
 20 60  1  0  0  0  0
 20 61  1  0  0  0  0
 21 28  1  0  0  0  0
 21 62  1  0  0  0  0
 21 63  1  0  0  0  0
 22 29  1  0  0  0  0
 22 64  1  0  0  0  0
 22 65  1  0  0  0  0
 23 30  1  0  0  0  0
 23 66  1  0  0  0  0
 23 67  1  0  0  0  0
 24 31  1  0  0  0  0
 24 68  1  0  0  0  0
 24 69  1  0  0  0  0
 25 32  1  0  0  0  0
 25 70  1  0  0  0  0
 25 71  1  0  0  0  0
 26 72  1  0  0  0  0
 26 73  1  0  0  0  0
 28 74  1  0  0  0  0
 28 75  1  0  0  0  0
 29 76  1  0  0  0  0
 29 77  1  0  0  0  0
 30 35  1  0  0  0  0
 30 78  1  0  0  0  0
 30 79  1  0  0  0  0
 31 36  1  0  0  0  0
 31 80  1  0  0  0  0
 31 81  1  0  0  0  0
 32 37  1  0  0  0  0
 32 82  1  0  0  0  0
 32 83  1  0  0  0  0
 35 85  1  0  0  0  0
 35 86  1  0  0  0  0
 35 87  1  0  0  0  0
 36 88  1  0  0  0  0
 36 89  1  0  0  0  0
 36 90  1  0  0  0  0
 37 91  1  0  0  0  0
 37 92  1  0  0  0  0
 37 93  1  0  0  0  0
M  END
> <PUBCHEM_COMPOUND_CID>
9828350

> <PUBCHEM_COMPOUND_CANONICALIZED>
1

> <PUBCHEM_CACTVS_COMPLEXITY>
544

> <PUBCHEM_CACTVS_HBOND_ACCEPTOR>
7

> <PUBCHEM_CACTVS_HBOND_DONOR>
1

> <PUBCHEM_CACTVS_ROTATABLE_BOND>
29

> <PUBCHEM_CACTVS_SUBSKEYS>
AAADcfB4OAAAAAAAAAAAAAAAAAAAAAAAAAAAAAAAAAAAAAAAAAAAGgAACAAADESggAICCAAABgAIAACQCAIAAAAAAAAAAAFAAAABABYAAAACQAAFIAADAAHL5qgKAAAAAAAAAAAAAAAAAAAAAAAAAAAAAA==

> <PUBCHEM_IUPAC_OPENEYE_NAME>
trioctyl 2-hydroxypropane-1,2,3-tricarboxylate

> <PUBCHEM_IUPAC_CAS_NAME>
2-hydroxypropane-1,2,3-tricarboxylic acid trioctyl ester

> <PUBCHEM_IUPAC_NAME_MARKUP>
trioctyl 2-hydroxypropane-1,2,3-tricarboxylate

> <PUBCHEM_IUPAC_NAME>
trioctyl 2-hydroxypropane-1,2,3-tricarboxylate

> <PUBCHEM_IUPAC_SYSTEMATIC_NAME>
trioctyl 2-oxidanylpropane-1,2,3-tricarboxylate

> <PUBCHEM_IUPAC_TRADITIONAL_NAME>
2-hydroxypropane-1,2,3-tricarboxylic acid trioctyl ester

> <PUBCHEM_IUPAC_INCHI>
InChI=1S/C30H56O7/c1-4-7-10-13-16-19-22-35-27(31)25-30(34,29(33)37-24-21-18-15-12-9-6-3)26-28(32)36-23-20-17-14-11-8-5-2/h34H,4-26H2,1-3H3

> <PUBCHEM_IUPAC_INCHIKEY>
APVVRLGIFCYZHJ-UHFFFAOYSA-N

> <PUBCHEM_XLOGP3_AA>
9.2

> <PUBCHEM_EXACT_MASS>
528.40260412

> <PUBCHEM_MOLECULAR_FORMULA>
C30H56O7

> <PUBCHEM_MOLECULAR_WEIGHT>
528.8

> <PUBCHEM_SMILES>
CCCCCCCCOC(=O)CC(CC(=O)OCCCCCCCC)(C(=O)OCCCCCCCC)O

> <PUBCHEM_OPENEYE_CAN_SMILES>
CCCCCCCCOC(=O)CC(CC(=O)OCCCCCCCC)(C(=O)OCCCCCCCC)O

> <PUBCHEM_OPENEYE_ISO_SMILES>
CCCCCCCCOC(=O)CC(CC(=O)OCCCCCCCC)(C(=O)OCCCCCCCC)O

> <PUBCHEM_CACTVS_TPSA>
99.1

> <PUBCHEM_MONOISOTOPIC_WEIGHT>
528.40260412

> <PUBCHEM_TOTAL_CHARGE>
0

> <PUBCHEM_HEAVY_ATOM_COUNT>
37

> <PUBCHEM_ATOM_DEF_STEREO_COUNT>
0

> <PUBCHEM_ATOM_UDEF_STEREO_COUNT>
0

> <PUBCHEM_BOND_DEF_STEREO_COUNT>
0

> <PUBCHEM_BOND_UDEF_STEREO_COUNT>
0

> <PUBCHEM_ISOTOPIC_ATOM_COUNT>
0

> <PUBCHEM_COMPONENT_COUNT>
1

> <PUBCHEM_CACTVS_TAUTO_COUNT>
-1

> <PUBCHEM_COORDINATE_TYPE>
1
5
255

$$$$
