9859577
  -OEChem-04042512372D

 24 23  0     0  0  0  0  0  0999 V2000
    5.6350   -1.4335    0.0000 O   0  0  0  0  0  0  0  0  0  0  0  0
    6.8671   -0.5675    0.0000 O   0  0  0  0  0  0  0  0  0  0  0  0
    6.0010    0.9325    0.0000 O   0  0  0  0  0  0  0  0  0  0  0  0
    3.4030   -2.5675    0.0000 O   0  0  0  0  0  0  0  0  0  0  0  0
    3.1350    1.1645    0.0000 O   0  0  0  0  0  0  0  0  0  0  0  0
    5.1350   -2.5675    0.0000 O   0  0  0  0  0  0  0  0  0  0  0  0
    3.1350   -0.5675    0.0000 O   0  0  0  0  0  0  0  0  0  0  0  0
    7.7331   -0.0675    0.0000 O   0  0  0  0  0  0  0  0  0  0  0  0
    2.5369   -2.0675    0.0000 O   0  0  0  0  0  0  0  0  0  0  0  0
    3.6350    2.0306    0.0000 O   0  0  0  0  0  0  0  0  0  0  0  0
    5.1350   -0.5675    0.0000 C   0  0  0  0  0  0  0  0  0  0  0  0
    4.2690   -1.0675    0.0000 C   0  0  0  0  0  0  0  0  0  0  0  0
    4.6350    0.2985    0.0000 C   0  0  0  0  0  0  0  0  0  0  0  0
    6.0010   -0.0675    0.0000 C   0  0  0  0  0  0  0  0  0  0  0  0
    4.2690   -2.0675    0.0000 C   0  0  0  0  0  0  0  0  0  0  0  0
    3.6350    0.2985    0.0000 C   0  0  0  0  0  0  0  0  0  0  0  0
    4.0569   -0.4849    0.0000 H   0  0  0  0  0  0  0  0  0  0  0  0
    3.6584   -1.1752    0.0000 H   0  0  0  0  0  0  0  0  0  0  0  0
    5.2176    0.5106    0.0000 H   0  0  0  0  0  0  0  0  0  0  0  0
    4.5274    0.9091    0.0000 H   0  0  0  0  0  0  0  0  0  0  0  0
    5.3250   -1.9705    0.0000 H   0  0  0  0  0  0  0  0  0  0  0  0
    8.2700   -0.3775    0.0000 H   0  0  0  0  0  0  0  0  0  0  0  0
    2.0000   -2.3775    0.0000 H   0  0  0  0  0  0  0  0  0  0  0  0
    3.3250    2.5675    0.0000 H   0  0  0  0  0  0  0  0  0  0  0  0
  1 11  1  0  0  0  0
  1 21  1  0  0  0  0
  2  8  1  0  0  0  0
  2 14  1  0  0  0  0
  3 14  2  0  0  0  0
  4  9  1  0  0  0  0
  4 15  1  0  0  0  0
  5 10  1  0  0  0  0
  5 16  1  0  0  0  0
  6 15  2  0  0  0  0
  7 16  2  0  0  0  0
  8 22  1  0  0  0  0
  9 23  1  0  0  0  0
 10 24  1  0  0  0  0
 11 12  1  0  0  0  0
 11 13  1  0  0  0  0
 11 14  1  0  0  0  0
 12 15  1  0  0  0  0
 12 17  1  0  0  0  0
 12 18  1  0  0  0  0
 13 16  1  0  0  0  0
 13 19  1  0  0  0  0
 13 20  1  0  0  0  0
M  END
> <PUBCHEM_COMPOUND_CID>
9859577

> <PUBCHEM_COMPOUND_CANONICALIZED>
1

> <PUBCHEM_CACTVS_COMPLEXITY>
265

> <PUBCHEM_CACTVS_HBOND_ACCEPTOR>
10

> <PUBCHEM_CACTVS_HBOND_DONOR>
4

> <PUBCHEM_CACTVS_ROTATABLE_BOND>
8

> <PUBCHEM_CACTVS_SUBSKEYS>
AAADccBgPAAAAAAAAAAAAAAAAAAAAAAAAAAAAAAAAAAAAAAAAAAAGgAADAAADESAgAAACAAAAgAIAACQCAIAAAAAAAAAAAFAAAABABYAAAAAQAAFIAABAADLJgAKAAAAAAAAAAAAAAAAAAAAAAAAAAAAAA==

> <PUBCHEM_IUPAC_OPENEYE_NAME>
2-hydroxypropane-1,2,3-tricarboperoxoic acid

> <PUBCHEM_IUPAC_CAS_NAME>
2-hydroxypropane-1,2,3-tricarboperoxoic acid

> <PUBCHEM_IUPAC_NAME_MARKUP>
2-hydroxypropane-1,2,3-tricarboperoxoic acid

> <PUBCHEM_IUPAC_NAME>
2-hydroxypropane-1,2,3-tricarboperoxoic acid

> <PUBCHEM_IUPAC_SYSTEMATIC_NAME>
2-oxidanylpropane-1,2,3-tricarboperoxoic acid

> <PUBCHEM_IUPAC_TRADITIONAL_NAME>
2-hydroxypropane-1,2,3-tricarboperoxoic acid

> <PUBCHEM_IUPAC_INCHI>
InChI=1S/C6H8O10/c7-3(14-11)1-6(10,5(9)16-13)2-4(8)15-12/h10-13H,1-2H2

> <PUBCHEM_IUPAC_INCHIKEY>
VGBKDMBHXYUKRX-UHFFFAOYSA-N

> <PUBCHEM_XLOGP3_AA>
-2.5

> <PUBCHEM_EXACT_MASS>
240.01174645

> <PUBCHEM_MOLECULAR_FORMULA>
C6H8O10

> <PUBCHEM_MOLECULAR_WEIGHT>
240.12

> <PUBCHEM_SMILES>
C(C(=O)OO)C(CC(=O)OO)(C(=O)OO)O

> <PUBCHEM_OPENEYE_CAN_SMILES>
C(C(=O)OO)C(CC(=O)OO)(C(=O)OO)O

> <PUBCHEM_OPENEYE_ISO_SMILES>
C(C(=O)OO)C(CC(=O)OO)(C(=O)OO)O

> <PUBCHEM_CACTVS_TPSA>
160

> <PUBCHEM_MONOISOTOPIC_WEIGHT>
240.01174645

> <PUBCHEM_TOTAL_CHARGE>
0

> <PUBCHEM_HEAVY_ATOM_COUNT>
16

> <PUBCHEM_ATOM_DEF_STEREO_COUNT>
0

> <PUBCHEM_ATOM_UDEF_STEREO_COUNT>
0

> <PUBCHEM_BOND_DEF_STEREO_COUNT>
0

> <PUBCHEM_BOND_UDEF_STEREO_COUNT>
0

> <PUBCHEM_ISOTOPIC_ATOM_COUNT>
0

> <PUBCHEM_COMPONENT_COUNT>
1

> <PUBCHEM_CACTVS_TAUTO_COUNT>
-1

> <PUBCHEM_COORDINATE_TYPE>
1
5
255

$$$$
